/*--------------------------------*- C++ -*----------------------------------*\
  =========                 |
  \\      /  F ield         | OpenFOAM: The Open Source CFD Toolbox
   \\    /   O peration     | Website:  https://openfoam.org
    \\  /    A nd           | Version:  12
     \\/     M anipulation  |
\*---------------------------------------------------------------------------*/
FoamFile
{
    format      ascii;
    class       dictionary;
    location    "constant";
    object      physicalProperties;
}
// * * * * * * * * * * * * * * * * * * * * * * * * * * * * * * * * * * * * * //

thermoType
{
    type            heRhoThermo;
    mixture         pureMixture;
    transport       sutherland;
    thermo          hConst;
    equationOfState perfectGas;
    specie          specie;
    energy          sensibleEnthalpy;
}

dpdt            off;

mixture
{
    specie
    {
        molWeight       28.96;
    }
    thermodynamics
    {
        Cp              1004.4;
        Hf              0;
    }
    equationOfState
    {
        rho            1.2;
        pRef        101325;
    }
    transport
    {
        As              1.67212e-06;
        Ts              170.672;
    }
}


D_CO2     	[0 2 -1 0 0 0 0] 1e-5;  
D_hum     	[0 2 -1 0 0 0 0] 2.5e-5;  


// ************************************************************************* //
