/*--------------------------------*- C++ -*----------------------------------*\
  =========                 |
  \\      /  F ield         | OpenFOAM: The Open Source CFD Toolbox
   \\    /   O peration     | Website:  https://openfoam.org
    \\  /    A nd           | Version:  12
     \\/     M anipulation  |
\*---------------------------------------------------------------------------*/
FoamFile
{
    format      ascii;
    class       featureEdgeMesh;
    location    "constant/triSurface";
    object      window.eMesh;
}
// * * * * * * * * * * * * * * * * * * * * * * * * * * * * * * * * * * * * * //


// points:

1223
(
(0.461 -0.2925 2.2275)
(0.461 -0.355128 2.2275)
(1.641 -0.355128 2.2275)
(1.641 -0.2925 2.2275)
(0.461 -0.2925 0.7975)
(0.461 -0.355128 0.7975)
(1.641 -0.355128 0.7975)
(1.641 -0.2925 0.7975)
(1.702 0 2.2885)
(1.702 -0.2025 2.2885)
(1.702 -0.2025 0.7365)
(1.702 0 0.7365)
(0.4 -0.2025 2.2885)
(0.4 0 2.2885)
(0.4 -0.2025 0.7365)
(0.4 0 0.7365)
(0.531 -0.350128 0.8675)
(1.571 -0.350128 0.8675)
(1.571 -0.350128 2.1575)
(0.531 -0.350128 2.1575)
(0.531 -0.345128 0.8675)
(1.571 -0.345128 0.8675)
(0.531 -0.345128 2.1575)
(1.571 -0.345128 2.1575)
(1.652 -0.1825 2.2385)
(1.652 -0.1825 0.7865)
(1.641 -0.1675 2.2275)
(1.641 -0.1675 0.7975)
(1.63 -0.1525 2.2165)
(1.63 -0.1525 0.8085)
(1.622 -0.1075 2.2085)
(1.622 -0.1075 0.8165)
(0.45 -0.1825 2.2385)
(0.45 -0.1825 0.7865)
(0.461 -0.1675 2.2275)
(0.461 -0.1675 0.7975)
(0.472 -0.1525 2.2165)
(0.472 -0.1525 0.8085)
(0.48 -0.1075 2.2085)
(0.48 -0.1075 0.8165)
(0.531 -0.355128 2.1575)
(1.571 -0.355128 2.1575)
(1.571 -0.355128 0.8675)
(0.531 -0.355128 0.8675)
(1.571 -0.2925 2.1575)
(0.531 -0.2925 2.1575)
(0.531 -0.2925 0.8675)
(1.571 -0.2925 0.8675)
(1.652 -0.2025 2.2385)
(1.652 -0.2025 0.7865)
(1.641 -0.1825 2.2275)
(1.641 -0.1825 0.7975)
(1.63 -0.1675 2.2165)
(1.63 -0.1675 0.8085)
(1.622 -0.1525 2.2085)
(1.622 -0.1525 0.8165)
(1.571 0 0.8675)
(1.571 0 2.1575)
(1.571 -0.1075 2.1575)
(1.571 -0.1075 0.8675)
(0.45 -0.2025 2.2385)
(0.45 -0.2025 0.7865)
(0.461 -0.1825 2.2275)
(0.461 -0.1825 0.7975)
(0.472 -0.1675 2.2165)
(0.472 -0.1675 0.8085)
(0.48 -0.1525 2.2085)
(0.48 -0.1525 0.8165)
(0.531 0 0.8675)
(0.531 0 2.1575)
(0.531 -0.1075 2.1575)
(0.531 -0.1075 0.8675)
(0.657667 -0.2925 2.2275)
(0.657667 -0.355128 2.2275)
(0.854333 -0.2925 2.2275)
(0.854333 -0.355128 2.2275)
(1.24767 -0.2925 2.2275)
(1.051 -0.2925 2.2275)
(1.051 -0.355128 2.2275)
(1.24767 -0.355128 2.2275)
(1.44433 -0.2925 2.2275)
(1.44433 -0.355128 2.2275)
(0.461 -0.2925 2.1575)
(0.461 -0.355128 1.98917)
(0.461 -0.2925 1.93083)
(0.461 -0.355128 1.5125)
(0.461 -0.355128 1.75083)
(0.461 -0.2925 1.70417)
(0.461 -0.2925 1.4775)
(0.461 -0.355128 1.03583)
(0.461 -0.355128 1.27417)
(0.461 -0.2925 1.25083)
(0.461 -0.2925 1.02417)
(0.531 -0.2925 0.7975)
(0.657667 -0.355128 0.7975)
(0.739 -0.2925 0.7975)
(0.947 -0.2925 0.7975)
(1.155 -0.2925 0.7975)
(1.44433 -0.355128 0.7975)
(1.363 -0.2925 0.7975)
(1.571 -0.2925 0.7975)
(1.24767 -0.355128 0.7975)
(0.854333 -0.355128 0.7975)
(1.051 -0.355128 0.7975)
(1.641 -0.355128 1.03583)
(1.641 -0.2925 1.02417)
(1.641 -0.355128 1.27417)
(1.641 -0.2925 1.25083)
(1.641 -0.355128 1.75083)
(1.641 -0.355128 1.5125)
(1.641 -0.2925 1.4775)
(1.641 -0.2925 1.70417)
(1.641 -0.355128 1.98917)
(1.641 -0.2925 1.93083)
(1.641 -0.2925 2.1575)
(0.553128 -0.355128 2.1575)
(0.575255 -0.355128 2.1575)
(0.597383 -0.355128 2.1575)
(0.619511 -0.355128 2.1575)
(0.641638 -0.355128 2.1575)
(0.663766 -0.355128 2.1575)
(0.685894 -0.355128 2.1575)
(0.708021 -0.355128 2.1575)
(0.730149 -0.355128 2.1575)
(0.752277 -0.355128 2.1575)
(0.774404 -0.355128 2.1575)
(0.796532 -0.355128 2.1575)
(0.81866 -0.355128 2.1575)
(0.840787 -0.355128 2.1575)
(0.862915 -0.355128 2.1575)
(0.885043 -0.355128 2.1575)
(0.90717 -0.355128 2.1575)
(0.929298 -0.355128 2.1575)
(0.951426 -0.355128 2.1575)
(0.973553 -0.355128 2.1575)
(0.995681 -0.355128 2.1575)
(1.01781 -0.355128 2.1575)
(1.03994 -0.355128 2.1575)
(1.06206 -0.355128 2.1575)
(1.08419 -0.355128 2.1575)
(1.10632 -0.355128 2.1575)
(1.12845 -0.355128 2.1575)
(1.15057 -0.355128 2.1575)
(1.1727 -0.355128 2.1575)
(1.19483 -0.355128 2.1575)
(1.21696 -0.355128 2.1575)
(1.23909 -0.355128 2.1575)
(1.26121 -0.355128 2.1575)
(1.28334 -0.355128 2.1575)
(1.30547 -0.355128 2.1575)
(1.3276 -0.355128 2.1575)
(1.34972 -0.355128 2.1575)
(1.37185 -0.355128 2.1575)
(1.39398 -0.355128 2.1575)
(1.41611 -0.355128 2.1575)
(1.43823 -0.355128 2.1575)
(1.46036 -0.355128 2.1575)
(1.48249 -0.355128 2.1575)
(1.50462 -0.355128 2.1575)
(1.52674 -0.355128 2.1575)
(1.54887 -0.355128 2.1575)
(1.571 -0.355128 2.13526)
(1.571 -0.355128 2.11302)
(1.571 -0.355128 2.09078)
(1.571 -0.355128 2.06853)
(1.571 -0.355128 2.04629)
(1.571 -0.355128 2.02405)
(1.571 -0.355128 2.00181)
(1.571 -0.355128 1.97957)
(1.571 -0.355128 1.95733)
(1.571 -0.355128 1.93509)
(1.571 -0.355128 1.91284)
(1.571 -0.355128 1.8906)
(1.571 -0.355128 1.86836)
(1.571 -0.355128 1.84612)
(1.571 -0.355128 1.82388)
(1.571 -0.355128 1.80164)
(1.571 -0.355128 1.7794)
(1.571 -0.355128 1.75716)
(1.571 -0.355128 1.73491)
(1.571 -0.355128 1.71267)
(1.571 -0.355128 1.69043)
(1.571 -0.355128 1.66819)
(1.571 -0.355128 1.64595)
(1.571 -0.355128 1.62371)
(1.571 -0.355128 1.60147)
(1.571 -0.355128 1.57922)
(1.571 -0.355128 1.55698)
(1.571 -0.355128 1.53474)
(1.571 -0.355128 1.5125)
(1.571 -0.355128 1.49026)
(1.571 -0.355128 1.46802)
(1.571 -0.355128 1.44578)
(1.571 -0.355128 1.42353)
(1.571 -0.355128 1.40129)
(1.571 -0.355128 1.37905)
(1.571 -0.355128 1.35681)
(1.571 -0.355128 1.33457)
(1.571 -0.355128 1.31233)
(1.571 -0.355128 1.29009)
(1.571 -0.355128 1.26784)
(1.571 -0.355128 1.2456)
(1.571 -0.355128 1.22336)
(1.571 -0.355128 1.20112)
(1.571 -0.355128 1.17888)
(1.571 -0.355128 1.15664)
(1.571 -0.355128 1.1344)
(1.571 -0.355128 1.11216)
(1.571 -0.355128 1.08991)
(1.571 -0.355128 1.06767)
(1.571 -0.355128 1.04543)
(1.571 -0.355128 1.02319)
(1.571 -0.355128 1.00095)
(1.571 -0.355128 0.978707)
(1.571 -0.355128 0.956466)
(1.571 -0.355128 0.934224)
(1.571 -0.355128 0.911983)
(1.571 -0.355128 0.889741)
(1.48249 -0.355128 0.8675)
(1.46036 -0.355128 0.8675)
(1.54887 -0.355128 0.8675)
(1.52674 -0.355128 0.8675)
(1.50462 -0.355128 0.8675)
(1.34972 -0.355128 0.8675)
(1.3276 -0.355128 0.8675)
(1.28334 -0.355128 0.8675)
(1.26121 -0.355128 0.8675)
(1.41611 -0.355128 0.8675)
(1.39398 -0.355128 0.8675)
(1.21696 -0.355128 0.8675)
(1.19483 -0.355128 0.8675)
(1.43823 -0.355128 0.8675)
(1.15057 -0.355128 0.8675)
(1.12845 -0.355128 0.8675)
(1.03994 -0.355128 0.8675)
(1.01781 -0.355128 0.8675)
(0.973553 -0.355128 0.8675)
(0.951426 -0.355128 0.8675)
(1.08419 -0.355128 0.8675)
(1.06206 -0.355128 0.8675)
(0.840787 -0.355128 0.8675)
(0.81866 -0.355128 0.8675)
(0.708021 -0.355128 0.8675)
(0.685894 -0.355128 0.8675)
(0.641638 -0.355128 0.8675)
(0.619511 -0.355128 0.8675)
(0.774404 -0.355128 0.8675)
(0.752277 -0.355128 0.8675)
(0.90717 -0.355128 0.8675)
(0.885043 -0.355128 0.8675)
(1.37185 -0.355128 0.8675)
(1.30547 -0.355128 0.8675)
(1.23909 -0.355128 0.8675)
(1.1727 -0.355128 0.8675)
(1.10632 -0.355128 0.8675)
(0.995681 -0.355128 0.8675)
(0.929298 -0.355128 0.8675)
(0.862915 -0.355128 0.8675)
(0.796532 -0.355128 0.8675)
(0.730149 -0.355128 0.8675)
(0.663766 -0.355128 0.8675)
(0.597383 -0.355128 0.8675)
(0.575255 -0.355128 0.8675)
(0.553128 -0.355128 0.8675)
(0.531 -0.355128 2.13526)
(0.531 -0.355128 2.11302)
(0.531 -0.355128 2.06853)
(0.531 -0.355128 2.09078)
(0.531 -0.355128 2.04629)
(0.531 -0.355128 2.00181)
(0.531 -0.355128 2.02405)
(0.531 -0.355128 1.97957)
(0.531 -0.355128 1.93509)
(0.531 -0.355128 1.95733)
(0.531 -0.355128 1.8906)
(0.531 -0.355128 1.91284)
(0.531 -0.355128 1.84612)
(0.531 -0.355128 1.86836)
(0.531 -0.355128 1.82388)
(0.531 -0.355128 1.7794)
(0.531 -0.355128 1.80164)
(0.531 -0.355128 1.75716)
(0.531 -0.355128 1.71267)
(0.531 -0.355128 1.73491)
(0.531 -0.355128 1.69043)
(0.531 -0.355128 1.64595)
(0.531 -0.355128 1.66819)
(0.531 -0.355128 1.60147)
(0.531 -0.355128 1.62371)
(0.531 -0.355128 1.55698)
(0.531 -0.355128 1.57922)
(0.531 -0.355128 1.53474)
(0.531 -0.355128 1.49026)
(0.531 -0.355128 1.5125)
(0.531 -0.355128 1.46802)
(0.531 -0.355128 1.42353)
(0.531 -0.355128 1.44578)
(0.531 -0.355128 1.40129)
(0.531 -0.355128 1.35681)
(0.531 -0.355128 1.37905)
(0.531 -0.355128 1.31233)
(0.531 -0.355128 1.33457)
(0.531 -0.355128 1.26784)
(0.531 -0.355128 1.29009)
(0.531 -0.355128 1.2456)
(0.531 -0.355128 1.20112)
(0.531 -0.355128 1.22336)
(0.531 -0.355128 1.17888)
(0.531 -0.355128 1.1344)
(0.531 -0.355128 1.15664)
(0.531 -0.355128 1.11216)
(0.531 -0.355128 1.06767)
(0.531 -0.355128 1.08991)
(0.531 -0.355128 1.02319)
(0.531 -0.355128 1.04543)
(0.531 -0.355128 0.978707)
(0.531 -0.355128 1.00095)
(0.531 -0.355128 0.956466)
(0.531 -0.355128 0.911983)
(0.531 -0.355128 0.934224)
(0.531 -0.355128 0.889741)
(1.39767 -0.2925 2.1575)
(1.22433 -0.2925 2.1575)
(1.051 -0.2925 2.1575)
(0.877667 -0.2925 2.1575)
(0.704333 -0.2925 2.1575)
(0.531 -0.2925 1.97321)
(0.531 -0.2925 1.78893)
(0.531 -0.2925 1.60464)
(0.531 -0.2925 1.42036)
(0.531 -0.2925 1.23607)
(0.531 -0.2925 1.05179)
(1.571 -0.2925 1.97321)
(1.571 -0.2925 1.60464)
(1.571 -0.2925 1.78893)
(1.571 -0.2925 1.23607)
(1.571 -0.2925 1.42036)
(1.571 -0.2925 1.05179)
(0.704333 -0.2925 0.8675)
(0.877667 -0.2925 0.8675)
(1.051 -0.2925 0.8675)
(1.22433 -0.2925 0.8675)
(1.39767 -0.2925 0.8675)
(1.652 -0.2025 2.15783)
(1.652 -0.2025 1.9965)
(1.652 -0.2025 2.07717)
(1.652 -0.2025 1.83517)
(1.652 -0.2025 1.91583)
(1.652 -0.2025 1.67383)
(1.652 -0.2025 1.7545)
(1.652 -0.2025 1.59317)
(1.652 -0.2025 1.43183)
(1.652 -0.2025 1.5125)
(1.652 -0.2025 1.2705)
(1.652 -0.2025 1.35117)
(1.652 -0.2025 1.18983)
(1.652 -0.2025 1.0285)
(1.652 -0.2025 1.10917)
(1.652 -0.2025 0.867167)
(1.652 -0.2025 0.947833)
(1.641 -0.1825 2.1625)
(1.641 -0.1825 2.0325)
(1.641 -0.1825 2.0975)
(1.641 -0.1825 1.9675)
(1.641 -0.1825 1.8375)
(1.641 -0.1825 1.9025)
(1.641 -0.1825 1.7725)
(1.641 -0.1825 1.6425)
(1.641 -0.1825 1.7075)
(1.641 -0.1825 1.5775)
(1.641 -0.1825 1.4475)
(1.641 -0.1825 1.5125)
(1.641 -0.1825 1.3825)
(1.641 -0.1825 1.2525)
(1.641 -0.1825 1.3175)
(1.641 -0.1825 1.1875)
(1.641 -0.1825 1.0575)
(1.641 -0.1825 1.1225)
(1.641 -0.1825 0.9925)
(1.641 -0.1825 0.8625)
(1.641 -0.1825 0.9275)
(1.63 -0.1675 2.1525)
(1.63 -0.1675 2.0245)
(1.63 -0.1675 2.0885)
(1.63 -0.1675 1.9605)
(1.63 -0.1675 1.8325)
(1.63 -0.1675 1.8965)
(1.63 -0.1675 1.7685)
(1.63 -0.1675 1.6405)
(1.63 -0.1675 1.7045)
(1.63 -0.1675 1.5765)
(1.63 -0.1675 1.4485)
(1.63 -0.1675 1.5125)
(1.63 -0.1675 1.3845)
(1.63 -0.1675 1.2565)
(1.63 -0.1675 1.3205)
(1.63 -0.1675 1.1925)
(1.63 -0.1675 1.0645)
(1.63 -0.1675 1.1285)
(1.63 -0.1675 1.0005)
(1.63 -0.1675 0.8725)
(1.63 -0.1675 0.9365)
(1.622 -0.1525 2.0693)
(1.622 -0.1525 1.7909)
(1.622 -0.1525 1.9301)
(1.622 -0.1525 1.6517)
(1.622 -0.1525 1.3733)
(1.622 -0.1525 1.5125)
(1.622 -0.1525 1.2341)
(1.622 -0.1525 0.9557)
(1.622 -0.1525 1.0949)
(1.571 0 0.9191)
(1.571 0 0.9707)
(1.571 0 1.0739)
(1.571 0 1.0223)
(1.571 0 1.1255)
(1.571 0 1.2287)
(1.571 0 1.1771)
(1.571 0 1.2803)
(1.571 0 1.3835)
(1.571 0 1.3319)
(1.571 0 1.4867)
(1.571 0 1.4351)
(1.571 0 1.5383)
(1.571 0 1.5899)
(1.571 0 1.6415)
(1.571 0 1.7447)
(1.571 0 1.6931)
(1.571 0 1.7963)
(1.571 0 1.8995)
(1.571 0 1.8479)
(1.571 0 1.9511)
(1.571 0 2.0543)
(1.571 0 2.0027)
(1.571 0 2.1059)
(1.571 -0.1075 2.01417)
(1.571 -0.1075 1.7275)
(1.571 -0.1075 1.87083)
(1.571 -0.1075 1.58417)
(1.571 -0.1075 1.44083)
(1.571 -0.1075 1.2975)
(1.571 -0.1075 1.15417)
(1.571 -0.1075 1.01083)
(1.702 0 2.1333)
(1.702 -0.2025 2.1333)
(1.702 0 1.8229)
(1.702 0 1.9781)
(1.702 -0.2025 1.9781)
(1.702 -0.2025 1.8229)
(1.702 0 1.6677)
(1.702 -0.2025 1.6677)
(1.702 0 1.3573)
(1.702 0 1.5125)
(1.702 -0.2025 1.5125)
(1.702 -0.2025 1.3573)
(1.702 0 1.2021)
(1.702 -0.2025 1.2021)
(1.702 0 0.8917)
(1.702 0 1.0469)
(1.702 -0.2025 1.0469)
(1.702 -0.2025 0.8917)
(0.45 -0.2025 2.15783)
(0.45 -0.2025 2.07717)
(0.45 -0.2025 1.9965)
(0.45 -0.2025 1.91583)
(0.45 -0.2025 1.83517)
(0.45 -0.2025 1.7545)
(0.45 -0.2025 1.67383)
(0.45 -0.2025 1.59317)
(0.45 -0.2025 1.5125)
(0.45 -0.2025 1.43183)
(0.45 -0.2025 1.35117)
(0.45 -0.2025 1.2705)
(0.45 -0.2025 1.18983)
(0.45 -0.2025 1.10917)
(0.45 -0.2025 1.0285)
(0.45 -0.2025 0.947833)
(0.45 -0.2025 0.867167)
(0.461 -0.1825 2.1625)
(0.461 -0.1825 2.0975)
(0.461 -0.1825 2.0325)
(0.461 -0.1825 1.9675)
(0.461 -0.1825 1.9025)
(0.461 -0.1825 1.8375)
(0.461 -0.1825 1.7725)
(0.461 -0.1825 1.7075)
(0.461 -0.1825 1.6425)
(0.461 -0.1825 1.5775)
(0.461 -0.1825 1.5125)
(0.461 -0.1825 1.4475)
(0.461 -0.1825 1.3825)
(0.461 -0.1825 1.3175)
(0.461 -0.1825 1.2525)
(0.461 -0.1825 1.1875)
(0.461 -0.1825 1.1225)
(0.461 -0.1825 1.0575)
(0.461 -0.1825 0.9925)
(0.461 -0.1825 0.9275)
(0.461 -0.1825 0.8625)
(0.472 -0.1675 2.1525)
(0.472 -0.1675 2.0885)
(0.472 -0.1675 2.0245)
(0.472 -0.1675 1.9605)
(0.472 -0.1675 1.8965)
(0.472 -0.1675 1.8325)
(0.472 -0.1675 1.7685)
(0.472 -0.1675 1.7045)
(0.472 -0.1675 1.6405)
(0.472 -0.1675 1.5765)
(0.472 -0.1675 1.5125)
(0.472 -0.1675 1.4485)
(0.472 -0.1675 1.3845)
(0.472 -0.1675 1.3205)
(0.472 -0.1675 1.2565)
(0.472 -0.1675 1.1925)
(0.472 -0.1675 1.1285)
(0.472 -0.1675 1.0645)
(0.472 -0.1675 1.0005)
(0.472 -0.1675 0.9365)
(0.472 -0.1675 0.8725)
(0.48 -0.1525 2.0693)
(0.48 -0.1525 1.9301)
(0.48 -0.1525 1.7909)
(0.48 -0.1525 1.6517)
(0.48 -0.1525 1.5125)
(0.48 -0.1525 1.3733)
(0.48 -0.1525 1.2341)
(0.48 -0.1525 1.0949)
(0.48 -0.1525 0.9557)
(0.531 0 0.9191)
(0.531 0 0.9707)
(0.531 0 1.0223)
(0.531 0 1.0739)
(0.531 0 1.1255)
(0.531 0 1.1771)
(0.531 0 1.2287)
(0.531 0 1.2803)
(0.531 0 1.3319)
(0.531 0 1.3835)
(0.531 0 1.4351)
(0.531 0 1.4867)
(0.531 0 1.5383)
(0.531 0 1.5899)
(0.531 0 1.6415)
(0.531 0 1.6931)
(0.531 0 1.7447)
(0.531 0 1.7963)
(0.531 0 1.8479)
(0.531 0 1.8995)
(0.531 0 1.9511)
(0.531 0 2.0027)
(0.531 0 2.0543)
(0.531 0 2.1059)
(0.531 -0.1075 2.01417)
(0.531 -0.1075 1.87083)
(0.531 -0.1075 1.7275)
(0.531 -0.1075 1.58417)
(0.531 -0.1075 1.44083)
(0.531 -0.1075 1.2975)
(0.531 -0.1075 1.15417)
(0.531 -0.1075 1.01083)
(0.4 -0.2025 2.1333)
(0.4 0 2.1333)
(0.4 -0.2025 1.8229)
(0.4 -0.2025 1.9781)
(0.4 0 1.9781)
(0.4 0 1.8229)
(0.4 -0.2025 1.6677)
(0.4 0 1.6677)
(0.4 -0.2025 1.3573)
(0.4 -0.2025 1.5125)
(0.4 0 1.5125)
(0.4 0 1.3573)
(0.4 -0.2025 1.2021)
(0.4 0 1.2021)
(0.4 -0.2025 0.8917)
(0.4 -0.2025 1.0469)
(0.4 0 1.0469)
(0.4 0 0.8917)
(1.57187 -0.2025 0.7865)
(1.4116 -0.2025 0.7865)
(1.49173 -0.2025 0.7865)
(1.25133 -0.2025 0.7865)
(1.33147 -0.2025 0.7865)
(1.09107 -0.2025 0.7865)
(1.1712 -0.2025 0.7865)
(0.9308 -0.2025 0.7865)
(1.01093 -0.2025 0.7865)
(0.770533 -0.2025 0.7865)
(0.850667 -0.2025 0.7865)
(0.610267 -0.2025 0.7865)
(0.6904 -0.2025 0.7865)
(0.530133 -0.2025 0.7865)
(1.57889 -0.1825 0.7975)
(1.45468 -0.1825 0.7975)
(1.51679 -0.1825 0.7975)
(1.39258 -0.1825 0.7975)
(1.26837 -0.1825 0.7975)
(1.33047 -0.1825 0.7975)
(1.14416 -0.1825 0.7975)
(1.20626 -0.1825 0.7975)
(1.08205 -0.1825 0.7975)
(0.957842 -0.1825 0.7975)
(1.01995 -0.1825 0.7975)
(0.833632 -0.1825 0.7975)
(0.895737 -0.1825 0.7975)
(0.771526 -0.1825 0.7975)
(0.647316 -0.1825 0.7975)
(0.709421 -0.1825 0.7975)
(0.523105 -0.1825 0.7975)
(0.585211 -0.1825 0.7975)
(1.56567 -0.1675 0.8085)
(1.437 -0.1675 0.8085)
(1.50133 -0.1675 0.8085)
(1.30833 -0.1675 0.8085)
(1.37267 -0.1675 0.8085)
(1.17967 -0.1675 0.8085)
(1.244 -0.1675 0.8085)
(1.11533 -0.1675 0.8085)
(0.986667 -0.1675 0.8085)
(1.051 -0.1675 0.8085)
(0.858 -0.1675 0.8085)
(0.922333 -0.1675 0.8085)
(0.793667 -0.1675 0.8085)
(0.665 -0.1675 0.8085)
(0.729333 -0.1675 0.8085)
(0.536333 -0.1675 0.8085)
(0.600667 -0.1675 0.8085)
(1.47925 -0.1525 0.8165)
(1.19375 -0.1525 0.8165)
(1.3365 -0.1525 0.8165)
(0.90825 -0.1525 0.8165)
(1.051 -0.1525 0.8165)
(0.62275 -0.1525 0.8165)
(0.7655 -0.1525 0.8165)
(1.56567 -0.1675 2.2165)
(1.50133 -0.1675 2.2165)
(1.437 -0.1675 2.2165)
(1.37267 -0.1675 2.2165)
(1.30833 -0.1675 2.2165)
(1.244 -0.1675 2.2165)
(1.17967 -0.1675 2.2165)
(1.11533 -0.1675 2.2165)
(1.051 -0.1675 2.2165)
(0.986667 -0.1675 2.2165)
(0.922333 -0.1675 2.2165)
(0.858 -0.1675 2.2165)
(0.793667 -0.1675 2.2165)
(0.729333 -0.1675 2.2165)
(0.665 -0.1675 2.2165)
(0.600667 -0.1675 2.2165)
(0.536333 -0.1675 2.2165)
(1.47925 -0.1525 2.2085)
(1.3365 -0.1525 2.2085)
(1.19375 -0.1525 2.2085)
(1.051 -0.1525 2.2085)
(0.90825 -0.1525 2.2085)
(0.7655 -0.1525 2.2085)
(0.62275 -0.1525 2.2085)
(1.57187 -0.2025 2.2385)
(1.49173 -0.2025 2.2385)
(1.4116 -0.2025 2.2385)
(1.33147 -0.2025 2.2385)
(1.25133 -0.2025 2.2385)
(1.1712 -0.2025 2.2385)
(1.09107 -0.2025 2.2385)
(1.01093 -0.2025 2.2385)
(0.9308 -0.2025 2.2385)
(0.850667 -0.2025 2.2385)
(0.770533 -0.2025 2.2385)
(0.6904 -0.2025 2.2385)
(0.610267 -0.2025 2.2385)
(0.530133 -0.2025 2.2385)
(1.57889 -0.1825 2.2275)
(1.51679 -0.1825 2.2275)
(1.45468 -0.1825 2.2275)
(1.39258 -0.1825 2.2275)
(1.33047 -0.1825 2.2275)
(1.26837 -0.1825 2.2275)
(1.20626 -0.1825 2.2275)
(1.14416 -0.1825 2.2275)
(1.08205 -0.1825 2.2275)
(1.01995 -0.1825 2.2275)
(0.957842 -0.1825 2.2275)
(0.895737 -0.1825 2.2275)
(0.833632 -0.1825 2.2275)
(0.771526 -0.1825 2.2275)
(0.709421 -0.1825 2.2275)
(0.647316 -0.1825 2.2275)
(0.585211 -0.1825 2.2275)
(0.523105 -0.1825 2.2275)
(1.53925 0 0.7365)
(1.53925 -0.2025 0.7365)
(1.3765 -0.2025 0.7365)
(1.21375 -0.2025 0.7365)
(1.21375 0 0.7365)
(1.3765 0 0.7365)
(1.051 0 0.7365)
(1.051 -0.2025 0.7365)
(0.88825 -0.2025 0.7365)
(0.88825 0 0.7365)
(0.7255 -0.2025 0.7365)
(0.56275 -0.2025 0.7365)
(0.56275 0 0.7365)
(0.7255 0 0.7365)
(1.53925 -0.2025 2.2885)
(1.53925 0 2.2885)
(1.21375 -0.2025 2.2885)
(1.3765 -0.2025 2.2885)
(1.3765 0 2.2885)
(1.21375 0 2.2885)
(0.88825 -0.2025 2.2885)
(1.051 -0.2025 2.2885)
(1.051 0 2.2885)
(0.88825 0 2.2885)
(0.56275 -0.2025 2.2885)
(0.7255 -0.2025 2.2885)
(0.7255 0 2.2885)
(0.56275 0 2.2885)
(0.679571 0 2.1575)
(0.828143 0 2.1575)
(0.976714 0 2.1575)
(0.679571 0 0.8675)
(0.828143 0 0.8675)
(0.976714 0 0.8675)
(1.12529 0 2.1575)
(1.27386 0 2.1575)
(1.42243 0 2.1575)
(1.12529 0 0.8675)
(1.27386 0 0.8675)
(1.42243 0 0.8675)
(0.679571 -0.1075 2.1575)
(0.828143 -0.1075 2.1575)
(0.976714 -0.1075 2.1575)
(1.12529 -0.1075 2.1575)
(1.27386 -0.1075 2.1575)
(1.42243 -0.1075 2.1575)
(0.679571 -0.1075 0.8675)
(0.828143 -0.1075 0.8675)
(0.976714 -0.1075 0.8675)
(1.12529 -0.1075 0.8675)
(1.27386 -0.1075 0.8675)
(1.42243 -0.1075 0.8675)
(0.553128 -0.350128 0.8675)
(0.575255 -0.350128 0.8675)
(0.619511 -0.350128 0.8675)
(0.597383 -0.350128 0.8675)
(0.641638 -0.350128 0.8675)
(0.685894 -0.350128 0.8675)
(0.663766 -0.350128 0.8675)
(0.708021 -0.350128 0.8675)
(0.752277 -0.350128 0.8675)
(0.730149 -0.350128 0.8675)
(0.774404 -0.350128 0.8675)
(0.81866 -0.350128 0.8675)
(0.796532 -0.350128 0.8675)
(0.840787 -0.350128 0.8675)
(0.885043 -0.350128 0.8675)
(0.862915 -0.350128 0.8675)
(0.90717 -0.350128 0.8675)
(0.951426 -0.350128 0.8675)
(0.929298 -0.350128 0.8675)
(0.973553 -0.350128 0.8675)
(1.01781 -0.350128 0.8675)
(0.995681 -0.350128 0.8675)
(1.03994 -0.350128 0.8675)
(1.08419 -0.350128 0.8675)
(1.06206 -0.350128 0.8675)
(1.10632 -0.350128 0.8675)
(1.15057 -0.350128 0.8675)
(1.12845 -0.350128 0.8675)
(1.1727 -0.350128 0.8675)
(1.21696 -0.350128 0.8675)
(1.19483 -0.350128 0.8675)
(1.23909 -0.350128 0.8675)
(1.28334 -0.350128 0.8675)
(1.26121 -0.350128 0.8675)
(1.30547 -0.350128 0.8675)
(1.34972 -0.350128 0.8675)
(1.3276 -0.350128 0.8675)
(1.37185 -0.350128 0.8675)
(1.41611 -0.350128 0.8675)
(1.39398 -0.350128 0.8675)
(1.43823 -0.350128 0.8675)
(1.48249 -0.350128 0.8675)
(1.46036 -0.350128 0.8675)
(1.50462 -0.350128 0.8675)
(1.54887 -0.350128 0.8675)
(1.52674 -0.350128 0.8675)
(1.571 -0.350128 0.889741)
(1.571 -0.350128 0.911983)
(1.571 -0.350128 0.956466)
(1.571 -0.350128 0.934224)
(1.571 -0.350128 1.00095)
(1.571 -0.350128 0.978707)
(1.571 -0.350128 1.04543)
(1.571 -0.350128 1.02319)
(1.571 -0.350128 1.06767)
(1.571 -0.350128 1.11216)
(1.571 -0.350128 1.08991)
(1.571 -0.350128 1.15664)
(1.571 -0.350128 1.1344)
(1.571 -0.350128 1.20112)
(1.571 -0.350128 1.17888)
(1.571 -0.350128 1.22336)
(1.571 -0.350128 1.26784)
(1.571 -0.350128 1.2456)
(1.571 -0.350128 1.31233)
(1.571 -0.350128 1.29009)
(1.571 -0.350128 1.35681)
(1.571 -0.350128 1.33457)
(1.571 -0.350128 1.40129)
(1.571 -0.350128 1.37905)
(1.571 -0.350128 1.44578)
(1.571 -0.350128 1.42353)
(1.571 -0.350128 1.49026)
(1.571 -0.350128 1.46802)
(1.571 -0.350128 1.53474)
(1.571 -0.350128 1.5125)
(1.571 -0.350128 1.55698)
(1.571 -0.350128 1.60147)
(1.571 -0.350128 1.57922)
(1.571 -0.350128 1.64595)
(1.571 -0.350128 1.62371)
(1.571 -0.350128 1.69043)
(1.571 -0.350128 1.66819)
(1.571 -0.350128 1.73491)
(1.571 -0.350128 1.71267)
(1.571 -0.350128 1.7794)
(1.571 -0.350128 1.75716)
(1.571 -0.350128 1.82388)
(1.571 -0.350128 1.80164)
(1.571 -0.350128 1.86836)
(1.571 -0.350128 1.84612)
(1.571 -0.350128 1.8906)
(1.571 -0.350128 1.93509)
(1.571 -0.350128 1.91284)
(1.571 -0.350128 1.97957)
(1.571 -0.350128 1.95733)
(1.571 -0.350128 2.02405)
(1.571 -0.350128 2.00181)
(1.571 -0.350128 2.06853)
(1.571 -0.350128 2.04629)
(1.571 -0.350128 2.11302)
(1.571 -0.350128 2.09078)
(1.571 -0.350128 2.13526)
(1.54887 -0.350128 2.1575)
(1.52674 -0.350128 2.1575)
(1.48249 -0.350128 2.1575)
(1.50462 -0.350128 2.1575)
(1.46036 -0.350128 2.1575)
(1.41611 -0.350128 2.1575)
(1.43823 -0.350128 2.1575)
(1.39398 -0.350128 2.1575)
(1.34972 -0.350128 2.1575)
(1.37185 -0.350128 2.1575)
(1.3276 -0.350128 2.1575)
(1.28334 -0.350128 2.1575)
(1.30547 -0.350128 2.1575)
(1.26121 -0.350128 2.1575)
(1.21696 -0.350128 2.1575)
(1.23909 -0.350128 2.1575)
(1.19483 -0.350128 2.1575)
(1.15057 -0.350128 2.1575)
(1.1727 -0.350128 2.1575)
(1.12845 -0.350128 2.1575)
(1.08419 -0.350128 2.1575)
(1.10632 -0.350128 2.1575)
(1.06206 -0.350128 2.1575)
(1.01781 -0.350128 2.1575)
(1.03994 -0.350128 2.1575)
(0.995681 -0.350128 2.1575)
(0.951426 -0.350128 2.1575)
(0.973553 -0.350128 2.1575)
(0.929298 -0.350128 2.1575)
(0.885043 -0.350128 2.1575)
(0.90717 -0.350128 2.1575)
(0.862915 -0.350128 2.1575)
(0.81866 -0.350128 2.1575)
(0.840787 -0.350128 2.1575)
(0.796532 -0.350128 2.1575)
(0.752277 -0.350128 2.1575)
(0.774404 -0.350128 2.1575)
(0.730149 -0.350128 2.1575)
(0.685894 -0.350128 2.1575)
(0.708021 -0.350128 2.1575)
(0.663766 -0.350128 2.1575)
(0.619511 -0.350128 2.1575)
(0.641638 -0.350128 2.1575)
(0.597383 -0.350128 2.1575)
(0.553128 -0.350128 2.1575)
(0.575255 -0.350128 2.1575)
(0.531 -0.350128 2.13526)
(0.531 -0.350128 2.11302)
(0.531 -0.350128 2.06853)
(0.531 -0.350128 2.09078)
(0.531 -0.350128 2.02405)
(0.531 -0.350128 2.04629)
(0.531 -0.350128 1.97957)
(0.531 -0.350128 2.00181)
(0.531 -0.350128 1.95733)
(0.531 -0.350128 1.91284)
(0.531 -0.350128 1.93509)
(0.531 -0.350128 1.86836)
(0.531 -0.350128 1.8906)
(0.531 -0.350128 1.82388)
(0.531 -0.350128 1.84612)
(0.531 -0.350128 1.80164)
(0.531 -0.350128 1.75716)
(0.531 -0.350128 1.7794)
(0.531 -0.350128 1.71267)
(0.531 -0.350128 1.73491)
(0.531 -0.350128 1.66819)
(0.531 -0.350128 1.69043)
(0.531 -0.350128 1.62371)
(0.531 -0.350128 1.64595)
(0.531 -0.350128 1.57922)
(0.531 -0.350128 1.60147)
(0.531 -0.350128 1.53474)
(0.531 -0.350128 1.55698)
(0.531 -0.350128 1.49026)
(0.531 -0.350128 1.5125)
(0.531 -0.350128 1.46802)
(0.531 -0.350128 1.42353)
(0.531 -0.350128 1.44578)
(0.531 -0.350128 1.37905)
(0.531 -0.350128 1.40129)
(0.531 -0.350128 1.33457)
(0.531 -0.350128 1.35681)
(0.531 -0.350128 1.29009)
(0.531 -0.350128 1.31233)
(0.531 -0.350128 1.2456)
(0.531 -0.350128 1.26784)
(0.531 -0.350128 1.20112)
(0.531 -0.350128 1.22336)
(0.531 -0.350128 1.15664)
(0.531 -0.350128 1.17888)
(0.531 -0.350128 1.1344)
(0.531 -0.350128 1.08991)
(0.531 -0.350128 1.11216)
(0.531 -0.350128 1.04543)
(0.531 -0.350128 1.06767)
(0.531 -0.350128 1.00095)
(0.531 -0.350128 1.02319)
(0.531 -0.350128 0.956466)
(0.531 -0.350128 0.978707)
(0.531 -0.350128 0.911983)
(0.531 -0.350128 0.934224)
(0.531 -0.350128 0.889741)
(0.704333 -0.345128 0.8675)
(0.877667 -0.345128 0.8675)
(1.051 -0.345128 0.8675)
(1.22433 -0.345128 0.8675)
(1.39767 -0.345128 0.8675)
(0.531 -0.345128 1.05179)
(0.531 -0.345128 1.42036)
(0.531 -0.345128 1.23607)
(0.531 -0.345128 1.78893)
(0.531 -0.345128 1.60464)
(0.531 -0.345128 1.97321)
(0.704333 -0.345128 2.1575)
(0.877667 -0.345128 2.1575)
(1.22433 -0.345128 2.1575)
(1.051 -0.345128 2.1575)
(1.39767 -0.345128 2.1575)
(1.571 -0.345128 1.97321)
(1.571 -0.345128 1.60464)
(1.571 -0.345128 1.78893)
(1.571 -0.345128 1.42036)
(1.571 -0.345128 1.23607)
(1.571 -0.345128 1.05179)
(1.652 -0.1825 2.15783)
(1.652 -0.1825 2.07717)
(1.652 -0.1825 1.9965)
(1.652 -0.1825 1.91583)
(1.652 -0.1825 1.83517)
(1.652 -0.1825 1.7545)
(1.652 -0.1825 1.67383)
(1.652 -0.1825 1.59317)
(1.652 -0.1825 1.5125)
(1.652 -0.1825 1.43183)
(1.652 -0.1825 1.35117)
(1.652 -0.1825 1.2705)
(1.652 -0.1825 1.18983)
(1.652 -0.1825 1.10917)
(1.652 -0.1825 1.0285)
(1.652 -0.1825 0.947833)
(1.652 -0.1825 0.867167)
(1.641 -0.1675 2.1625)
(1.641 -0.1675 2.0975)
(1.641 -0.1675 2.0325)
(1.641 -0.1675 1.9675)
(1.641 -0.1675 1.9025)
(1.641 -0.1675 1.8375)
(1.641 -0.1675 1.7725)
(1.641 -0.1675 1.7075)
(1.641 -0.1675 1.6425)
(1.641 -0.1675 1.5775)
(1.641 -0.1675 1.5125)
(1.641 -0.1675 1.4475)
(1.641 -0.1675 1.3825)
(1.641 -0.1675 1.3175)
(1.641 -0.1675 1.2525)
(1.641 -0.1675 1.1875)
(1.641 -0.1675 1.1225)
(1.641 -0.1675 1.0575)
(1.641 -0.1675 0.9925)
(1.641 -0.1675 0.9275)
(1.641 -0.1675 0.8625)
(1.63 -0.1525 2.1525)
(1.63 -0.1525 2.0885)
(1.63 -0.1525 2.0245)
(1.63 -0.1525 1.9605)
(1.63 -0.1525 1.8965)
(1.63 -0.1525 1.8325)
(1.63 -0.1525 1.7685)
(1.63 -0.1525 1.7045)
(1.63 -0.1525 1.6405)
(1.63 -0.1525 1.5765)
(1.63 -0.1525 1.5125)
(1.63 -0.1525 1.4485)
(1.63 -0.1525 1.3845)
(1.63 -0.1525 1.3205)
(1.63 -0.1525 1.2565)
(1.63 -0.1525 1.1925)
(1.63 -0.1525 1.1285)
(1.63 -0.1525 1.0645)
(1.63 -0.1525 1.0005)
(1.63 -0.1525 0.9365)
(1.63 -0.1525 0.8725)
(1.622 -0.1075 2.0693)
(1.622 -0.1075 1.9301)
(1.622 -0.1075 1.7909)
(1.622 -0.1075 1.6517)
(1.622 -0.1075 1.5125)
(1.622 -0.1075 1.3733)
(1.622 -0.1075 1.2341)
(1.622 -0.1075 1.0949)
(1.622 -0.1075 0.9557)
(1.571 -0.0125 0.8675)
(1.571 -0.0125 2.1575)
(0.45 -0.1825 2.15783)
(0.45 -0.1825 1.9965)
(0.45 -0.1825 2.07717)
(0.45 -0.1825 1.83517)
(0.45 -0.1825 1.91583)
(0.45 -0.1825 1.67383)
(0.45 -0.1825 1.7545)
(0.45 -0.1825 1.59317)
(0.45 -0.1825 1.43183)
(0.45 -0.1825 1.5125)
(0.45 -0.1825 1.2705)
(0.45 -0.1825 1.35117)
(0.45 -0.1825 1.18983)
(0.45 -0.1825 1.0285)
(0.45 -0.1825 1.10917)
(0.45 -0.1825 0.867167)
(0.45 -0.1825 0.947833)
(0.461 -0.1675 2.1625)
(0.461 -0.1675 2.0325)
(0.461 -0.1675 2.0975)
(0.461 -0.1675 1.9675)
(0.461 -0.1675 1.8375)
(0.461 -0.1675 1.9025)
(0.461 -0.1675 1.7725)
(0.461 -0.1675 1.6425)
(0.461 -0.1675 1.7075)
(0.461 -0.1675 1.5775)
(0.461 -0.1675 1.4475)
(0.461 -0.1675 1.5125)
(0.461 -0.1675 1.3825)
(0.461 -0.1675 1.2525)
(0.461 -0.1675 1.3175)
(0.461 -0.1675 1.1875)
(0.461 -0.1675 1.0575)
(0.461 -0.1675 1.1225)
(0.461 -0.1675 0.9925)
(0.461 -0.1675 0.8625)
(0.461 -0.1675 0.9275)
(0.472 -0.1525 2.1525)
(0.472 -0.1525 2.0245)
(0.472 -0.1525 2.0885)
(0.472 -0.1525 1.9605)
(0.472 -0.1525 1.8325)
(0.472 -0.1525 1.8965)
(0.472 -0.1525 1.7685)
(0.472 -0.1525 1.6405)
(0.472 -0.1525 1.7045)
(0.472 -0.1525 1.5765)
(0.472 -0.1525 1.4485)
(0.472 -0.1525 1.5125)
(0.472 -0.1525 1.3845)
(0.472 -0.1525 1.2565)
(0.472 -0.1525 1.3205)
(0.472 -0.1525 1.1925)
(0.472 -0.1525 1.0645)
(0.472 -0.1525 1.1285)
(0.472 -0.1525 1.0005)
(0.472 -0.1525 0.8725)
(0.472 -0.1525 0.9365)
(0.48 -0.1075 2.0693)
(0.48 -0.1075 1.7909)
(0.48 -0.1075 1.9301)
(0.48 -0.1075 1.6517)
(0.48 -0.1075 1.3733)
(0.48 -0.1075 1.5125)
(0.48 -0.1075 1.2341)
(0.48 -0.1075 0.9557)
(0.48 -0.1075 1.0949)
(0.531 -0.0125 0.8675)
(0.531 -0.0125 2.1575)
(1.57187 -0.1825 0.7865)
(1.49173 -0.1825 0.7865)
(1.4116 -0.1825 0.7865)
(1.33147 -0.1825 0.7865)
(1.25133 -0.1825 0.7865)
(1.1712 -0.1825 0.7865)
(1.09107 -0.1825 0.7865)
(1.01093 -0.1825 0.7865)
(0.9308 -0.1825 0.7865)
(0.850667 -0.1825 0.7865)
(0.770533 -0.1825 0.7865)
(0.6904 -0.1825 0.7865)
(0.610267 -0.1825 0.7865)
(0.530133 -0.1825 0.7865)
(1.57889 -0.1675 0.7975)
(1.51679 -0.1675 0.7975)
(1.45468 -0.1675 0.7975)
(1.39258 -0.1675 0.7975)
(1.33047 -0.1675 0.7975)
(1.26837 -0.1675 0.7975)
(1.20626 -0.1675 0.7975)
(1.14416 -0.1675 0.7975)
(1.08205 -0.1675 0.7975)
(1.01995 -0.1675 0.7975)
(0.957842 -0.1675 0.7975)
(0.895737 -0.1675 0.7975)
(0.833632 -0.1675 0.7975)
(0.771526 -0.1675 0.7975)
(0.709421 -0.1675 0.7975)
(0.647316 -0.1675 0.7975)
(0.585211 -0.1675 0.7975)
(0.523105 -0.1675 0.7975)
(1.56567 -0.1525 0.8085)
(1.50133 -0.1525 0.8085)
(1.437 -0.1525 0.8085)
(1.37267 -0.1525 0.8085)
(1.30833 -0.1525 0.8085)
(1.244 -0.1525 0.8085)
(1.17967 -0.1525 0.8085)
(1.11533 -0.1525 0.8085)
(1.051 -0.1525 0.8085)
(0.986667 -0.1525 0.8085)
(0.922333 -0.1525 0.8085)
(0.858 -0.1525 0.8085)
(0.793667 -0.1525 0.8085)
(0.729333 -0.1525 0.8085)
(0.665 -0.1525 0.8085)
(0.600667 -0.1525 0.8085)
(0.536333 -0.1525 0.8085)
(1.47925 -0.1075 0.8165)
(1.3365 -0.1075 0.8165)
(1.19375 -0.1075 0.8165)
(1.051 -0.1075 0.8165)
(0.90825 -0.1075 0.8165)
(0.7655 -0.1075 0.8165)
(0.62275 -0.1075 0.8165)
(1.56567 -0.1525 2.2165)
(1.437 -0.1525 2.2165)
(1.50133 -0.1525 2.2165)
(1.30833 -0.1525 2.2165)
(1.37267 -0.1525 2.2165)
(1.17967 -0.1525 2.2165)
(1.244 -0.1525 2.2165)
(1.11533 -0.1525 2.2165)
(0.986667 -0.1525 2.2165)
(1.051 -0.1525 2.2165)
(0.858 -0.1525 2.2165)
(0.922333 -0.1525 2.2165)
(0.793667 -0.1525 2.2165)
(0.665 -0.1525 2.2165)
(0.729333 -0.1525 2.2165)
(0.536333 -0.1525 2.2165)
(0.600667 -0.1525 2.2165)
(1.47925 -0.1075 2.2085)
(1.19375 -0.1075 2.2085)
(1.3365 -0.1075 2.2085)
(0.90825 -0.1075 2.2085)
(1.051 -0.1075 2.2085)
(0.62275 -0.1075 2.2085)
(0.7655 -0.1075 2.2085)
(1.57187 -0.1825 2.2385)
(1.4116 -0.1825 2.2385)
(1.49173 -0.1825 2.2385)
(1.25133 -0.1825 2.2385)
(1.33147 -0.1825 2.2385)
(1.09107 -0.1825 2.2385)
(1.1712 -0.1825 2.2385)
(0.9308 -0.1825 2.2385)
(1.01093 -0.1825 2.2385)
(0.770533 -0.1825 2.2385)
(0.850667 -0.1825 2.2385)
(0.610267 -0.1825 2.2385)
(0.6904 -0.1825 2.2385)
(0.530133 -0.1825 2.2385)
(1.57889 -0.1675 2.2275)
(1.45468 -0.1675 2.2275)
(1.51679 -0.1675 2.2275)
(1.39258 -0.1675 2.2275)