/*--------------------------------*- C++ -*----------------------------------*\
  =========                 |
  \\      /  F ield         | OpenFOAM: The Open Source CFD Toolbox
   \\    /   O peration     | Website:  https://openfoam.org
    \\  /    A nd           | Version:  12
     \\/     M anipulation  |
\*---------------------------------------------------------------------------*/
FoamFile
{
    format      ascii;
    class       extendedFeatureEdgeMesh;
    location    "constant/extendedFeatureEdgeMesh";
    object      atmosphere_outlet.extendedFeatureEdgeMesh;
}
// * * * * * * * * * * * * * * * * * * * * * * * * * * * * * * * * * * * * * //

// points

44
(
(-8.88178e-16 -2.2025 5)
(0 -0.2025 5)
(1.7 -0.2025 5)
(0.206 -0.2025 2.2885)
(0.206 -0.2025 0.7365)
(0 -0.2025 1.42109e-16)
(1.508 -0.2025 2.2885)
(1.508 -0.2025 0.7365)
(1.7 -0.2025 1.42109e-16)
(1.7 -2.2025 5)
(-8.88178e-16 -2.2025 1.42109e-16)
(1.7 -2.2025 1.42109e-16)
(0.242857 -0.2025 5)
(-8.88178e-16 -0.2025 4.28571)
(-8.88178e-16 -0.2025 3.57143)
(-8.88178e-16 -0.2025 2.85714)
(0.485714 -0.2025 5)
(0.728571 -0.2025 5)
(0.971429 -0.2025 5)
(1.21429 -0.2025 5)
(1.45714 -0.2025 5)
(1.7 -0.2025 4.28571)
(1.7 -0.2025 3.57143)
(1.7 -0.2025 2.85714)
(-8.88178e-16 -0.2025 2.14286)
(0.206 -0.2025 1.77117)
(-8.88178e-16 -0.2025 1.42857)
(0.64 -0.2025 2.2885)
(1.074 -0.2025 0.7365)
(0.64 -0.2025 0.7365)
(0.206 -0.2025 1.25383)
(-8.88178e-16 -0.2025 0.714286)
(0.242857 -0.2025 0)
(0.485714 -0.2025 0)
(0.728571 -0.2025 0)
(0.971429 -0.2025 0)
(1.074 -0.2025 2.2885)
(1.508 -0.2025 1.77117)
(1.508 -0.2025 1.25383)
(1.7 -0.2025 1.42857)
(1.7 -0.2025 2.14286)
(1.7 -0.2025 0.714286)
(1.21429 -0.2025 0)
(1.45714 -0.2025 0)
)

// edges

51
(
(0 9)
(9 2)
(1 0)
(10 0)
(9 11)
(12 1)
(1 13)
(13 14)
(14 15)
(16 12)
(17 16)
(18 17)
(19 18)
(20 19)
(21 2)
(2 20)
(22 21)
(23 22)
(15 24)
(25 3)
(24 26)
(3 27)
(28 29)
(30 25)
(26 31)
(4 30)
(31 5)
(5 32)
(33 34)
(34 35)
(29 4)
(32 33)
(27 36)
(36 6)
(6 37)
(37 38)
(39 40)
(38 7)
(41 39)
(40 23)
(35 42)
(42 43)
(7 28)
(43 8)
(8 41)
(2 1)
(1 5)
(5 10)
(11 10)
(2 8)
(8 11)
)

// concaveStart mixedStart nonFeatureStart
1 1 12
// internalStart flatStart openStart multipleStart
4 5 5 51
// normals

47
(
(0 -1 0)
(0 -1 0)
(0 -1 0)
(0 -1 0)
(0 -1 0)
(0 -1 0)
(0 -1 0)
(0 -1 0)
(0 -1 0)
(0 -1 0)
(0 -1 0)
(0 -1 0)
(0 -1 0)
(0 -1 0)
(0 -1 0)
(0 -1 0)
(0 -1 0)
(0 -1 0)
(-0 -1 0)
(0 -1 -0)
(0 -1 0)
(0 -1 0)
(0 -1 0)
(0 -1 0)
(0 -1 0)
(0 -1 0)
(0 -1 -0)
(0 -1 0)
(0 -1 0)
(0 -1 0)
(0 -1 -0)
(0 -1 0)
(0 -1 -0)
(0 -1 -0)
(0 -1 0)
(0 -1 0)
(0 -1 0)
(0 -1 0)
(-0 -1 -0)
(0 0 1)
(-1 4.44089e-16 0)
(-1 4.44089e-16 0)
(0 1 0)
(-1 0 0)
(-1 0 0)
(0 0 1)
(-0 1 0)
)

// normal volume types

47
(
0
0
0
0
0
0
0
0
0
0
0
0
0
0
0
0
0
0
0
0
0
0
0
0
0
0
0
0
0
0
0
0
0
0
0
0
0
0
0
0
0
0
0
0
0
0
0
)

// normalDirections

51
(
2{1}
2{1}
2(1 -1)
2{1}
2(1 -1)
1(1)
1(1)
1(1)
1(1)
1(1)
1(1)
1(1)
1(1)
1(1)
1(1)
1(1)
1(1)
1(1)
1(1)
1(1)
1(1)
1(1)
1(1)
1(1)
1(1)
1(1)
1(1)
1(1)
1(1)
1(1)
1(1)
1(1)
1(1)
1(1)
1(1)
1(1)
1(1)
1(1)
1(1)
1(1)
1(1)
1(1)
1(1)
1(1)
1(1)
1(1)
1(1)
1(1)
1(1)
1(1)
1(1)
)

// edgeNormals

51
(
2(45 46)
2(45 43)
2(39 40)
2(41 42)
2(46 44)
1(0)
1(1)
1(2)
1(3)
1(4)
1(5)
1(6)
1(7)
1(8)
1(9)
1(9)
1(10)
1(11)
1(12)
1(13)
1(14)
1(15)
1(16)
1(17)
1(18)
1(19)
1(20)
1(21)
1(22)
1(23)
1(24)
1(25)
1(26)
1(27)
1(28)
1(29)
1(30)
1(31)
1(32)
1(33)
1(34)
1(35)
1(36)
1(37)
1(38)
1(39)
1(40)
1(41)
1(42)
1(43)
1(44)
)

// featurePointNormals

12
(
3(45 46 40)
3(39 40 0)
3(45 43 9)
1(13)
1(19)
2(20 40)
1(27)
1(31)
2(37 43)
3(45 46 43)
2(41 42)
2(46 44)
)

// featurePointEdges

12
(
3(2 3 0)
5(2 5 6 45 46)
5(1 14 15 45 49)
2(19 21)
2(25 30)
4(26 27 46 47)
2(33 34)
2(37 42)
4(43 44 49 50)
3(0 4 1)
3(3 47 48)
3(4 48 50)
)

// regionEdges

46
(
5
6
7
8
9
10
11
12
13
14
15
16
17
18
19
20
21
22
23
24
25
26
27
28
29
30
31
32
33
34
35
36
37
38
39
40
41
42
43
44
45
46
47
48
49
50
)



// ************************************************************************* //
