/*--------------------------------*- C++ -*----------------------------------*\
  =========                 |
  \\      /  F ield         | OpenFOAM: The Open Source CFD Toolbox
   \\    /   O peration     | Website:  https://openfoam.org
    \\  /    A nd           | Version:  12
     \\/     M anipulation  |
\*---------------------------------------------------------------------------*/
FoamFile
{
    format      ascii;
    class       extendedFeatureEdgeMesh;
    location    "constant/extendedFeatureEdgeMesh";
    object      atmosphere.extendedFeatureEdgeMesh;
}
// * * * * * * * * * * * * * * * * * * * * * * * * * * * * * * * * * * * * * //

// points
8((-4.15 -0.2025 10) (5.85 -0.2025 10) (5.85 -10.2025 10) (-4.15 -10.2025 10) (-4.15 6.2025 10) (-4.15 16.2025 10) (5.85 16.2025 10) (5.85 6.2025 10))
// edges
8((0 1) (1 2) (2 3) (3 0) (4 5) (5 6) (6 7) (7 4))
// concaveStart mixedStart nonFeatureStart
0 0 8
// internalStart flatStart openStart multipleStart
0 0 0 8
// normals
4{(0 0 -1)}
// normal volume types

4
(
0
0
0
0
)

// normalDirections

8
(
1(1)
1(1)
1(1)
1(1)
1(1)
1(1)
1(1)
1(1)
)

// edgeNormals

8
(
1(0)
1(0)
1(1)
1(1)
1(2)
1(2)
1(3)
1(3)
)

// featurePointNormals

8
(
1(0)
1(0)
1(0)
1(1)
1(2)
1(2)
1(2)
1(3)
)

// featurePointEdges

8
(
2(0 3)
2(0 1)
2(1 2)
2(2 3)
2(4 7)
2(4 5)
2(5 6)
2(6 7)
)

// regionEdges
8(0 1 2 3 4 5 6 7)


// ************************************************************************* //
