/*--------------------------------*- C++ -*----------------------------------*\
  =========                 |
  \\      /  F ield         | OpenFOAM: The Open Source CFD Toolbox
   \\    /   O peration     | Website:  https://openfoam.org
    \\  /    A nd           | Version:  12
     \\/     M anipulation  |
\*---------------------------------------------------------------------------*/
FoamFile
{
    format      ascii;
    class       extendedFeatureEdgeMesh;
    location    "constant/extendedFeatureEdgeMesh";
    object      couple.extendedFeatureEdgeMesh;
}
// * * * * * * * * * * * * * * * * * * * * * * * * * * * * * * * * * * * * * //

// points

64
(
(2.48943 3.10225 2.6)
(2.5 3 2.6)
(2.5 3 2.3)
(2.48943 3.10225 2.3)
(2.41227 3.2829 2.6)
(2.4595 3.19714 2.6)
(2.4595 3.19714 2.3)
(2.41227 3.2829 2.3)
(2.2747 3.41778 2.6)
(2.35004 3.35703 2.6)
(2.35004 3.35703 2.3)
(2.2747 3.41778 2.3)
(2.09633 3.49063 2.6)
(2.18906 3.46288 2.6)
(2.18906 3.46288 2.3)
(2.09633 3.49063 2.3)
(1.89775 3.48943 2.6)
(2 3.5 2.6)
(2 3.5 2.3)
(1.89775 3.48943 2.3)
(1.7171 3.41227 2.6)
(1.80286 3.4595 2.6)
(1.80286 3.4595 2.3)
(1.7171 3.41227 2.3)
(1.58222 3.2747 2.6)
(1.64297 3.35004 2.6)
(1.64297 3.35004 2.3)
(1.58222 3.2747 2.3)
(1.50937 3.09633 2.6)
(1.53712 3.18906 2.6)
(1.53712 3.18906 2.3)
(1.50937 3.09633 2.3)
(1.5 3 2.6)
(1.5 3 2.3)
(1.5405 2.80286 2.6)
(1.51057 2.89775 2.6)
(1.51057 2.89775 2.3)
(1.5405 2.80286 2.3)
(1.64996 2.64297 2.6)
(1.58773 2.7171 2.6)
(1.58773 2.7171 2.3)
(1.64996 2.64297 2.3)
(1.81094 2.53712 2.6)
(1.7253 2.58222 2.6)
(1.7253 2.58222 2.3)
(1.81094 2.53712 2.3)
(2 2.5 2.6)
(1.90367 2.50937 2.6)
(1.90367 2.50937 2.3)
(2 2.5 2.3)
(2.19714 2.5405 2.6)
(2.10225 2.51057 2.6)
(2.10225 2.51057 2.3)
(2.19714 2.5405 2.3)
(2.35703 2.64996 2.6)
(2.2829 2.58773 2.6)
(2.2829 2.58773 2.3)
(2.35703 2.64996 2.3)
(2.46288 2.81094 2.6)
(2.41778 2.7253 2.6)
(2.41778 2.7253 2.3)
(2.46288 2.81094 2.3)
(2.49063 2.90367 2.6)
(2.49063 2.90367 2.3)
)

// edges

64
(
(0 1)
(2 3)
(4 5)
(6 7)
(5 0)
(3 6)
(8 9)
(10 11)
(12 13)
(14 15)
(13 8)
(11 14)
(9 4)
(7 10)
(16 17)
(18 19)
(20 21)
(22 23)
(21 16)
(19 22)
(24 25)
(26 27)
(28 29)
(30 31)
(29 24)
(27 30)
(25 20)
(23 26)
(17 12)
(15 18)
(32 28)
(31 33)
(34 35)
(36 37)
(38 39)
(40 41)
(39 34)
(37 40)
(42 43)
(44 45)
(46 47)
(48 49)
(47 42)
(45 48)
(43 38)
(41 44)
(50 51)
(52 53)
(54 55)
(56 57)
(55 50)
(53 56)
(58 59)
(60 61)
(1 62)
(63 2)
(62 58)
(61 63)
(59 54)
(57 60)
(51 46)
(49 52)
(35 32)
(33 36)
)

// concaveStart mixedStart nonFeatureStart
0 0 0
// internalStart flatStart openStart multipleStart
64 64 64 64
// normals

128
(
(0.994703 0.102793 -0)
(0 0 1)
(0.994703 0.102793 0)
(0 0 -1)
(0.875978 0.48235 -0)
(0 0 1)
(0.875978 0.48235 0)
(0 0 -1)
(0.953661 0.300882 -0)
(0 0 1)
(0.953661 0.300882 0)
(-0 0 -1)
(0.62769 0.778463 -0)
(0 0 1)
(0.62769 0.778463 0)
(0 -0 -1)
(0.286739 0.958009 -0)
(0 0 1)
(0.286739 0.958009 0)
(-0 0 -1)
(0.465946 0.884813 -0)
(0 0 1)
(0.465946 0.884813 0)
(0 0 -1)
(0.765916 0.642941 -0)
(0 0 1)
(0.765916 0.642941 0)
(-0 0 -1)
(-0.102793 0.994703 0)
(-0 0 1)
(-0.102793 0.994703 0)
(0 0 -1)
(-0.48235 0.875979 0)
(-0 0 1)
(-0.48235 0.875979 0)
(0 0 -1)
(-0.300882 0.953661 0)
(0 0 1)
(-0.300882 0.953661 0)
(0 -0 -1)
(-0.778463 0.62769 0)
(0 0 1)
(-0.778463 0.62769 0)
(0 -0 -1)
(-0.958009 0.286739 0)
(0 0 1)
(-0.958009 0.286739 0)
(0 0 -1)
(-0.884814 0.465945 0)
(0 0 1)
(-0.884814 0.465945 0)
(0 0 -1)
(-0.642942 0.765915 0)
(-0 0 1)
(-0.642942 0.765915 0)
(0 0 -1)
(0.0967876 0.995305 -0)
(0 0 1)
(0.0967876 0.995305 0)
(0 0 -1)
(-0.995305 0.0967889 0)
(0 0 1)
(-0.995305 0.0967889 0)
(0 0 -1)
(-0.953662 -0.30088 0)
(0 -0 1)
(-0.953662 -0.30088 0)
(0 0 -1)
(-0.765916 -0.642941 0)
(-0 0 1)
(-0.765916 -0.642941 0)
(0 0 -1)
(-0.875978 -0.482351 0)
(0 -0 1)
(-0.875978 -0.482351 0)
(0 0 -1)
(-0.465946 -0.884813 0)
(-0 0 1)
(-0.465946 -0.884813 0)
(0 0 -1)
(-0.0967876 -0.995305 0)
(0 0 1)
(-0.0967876 -0.995305 0)
(0 0 -1)
(-0.286739 -0.958009 0)
(0 -0 1)
(-0.286739 -0.958009 0)
(0 0 -1)
(-0.627691 -0.778463 0)
(0 0 1)
(-0.627691 -0.778463 0)
(0 0 -1)
(0.300882 -0.953661 0)
(0 0 1)
(0.300882 -0.953661 0)
(-0 0 -1)
(0.642941 -0.765916 0)
(0 -0 1)
(0.642941 -0.765916 0)
(0 0 -1)
(0.48235 -0.875978 0)
(0 0 1)
(0.48235 -0.875978 0)
(0 0 -1)
(0.884813 -0.465946 0)
(0 -0 1)
(0.884813 -0.465946 0)
(0 0 -1)
(0.995305 -0.0967876 0)
(0 -0 1)
(0.995305 -0.0967876 0)
(0 0 -1)
(0.958009 -0.286739 0)
(0 0 1)
(0.958009 -0.286739 0)
(0 0 -1)
(0.778463 -0.62769 0)
(0 0 1)
(0.778463 -0.62769 0)
(0 0 -1)
(0.102793 -0.994703 0)
(0 0 1)
(0.102793 -0.994703 0)
(0 0 -1)
(-0.994703 -0.102794 0)
(0 0 1)
(-0.994703 -0.102794 0)
(-0 0 -1)
)

// normal volume types

128
(
0
0
0
0
0
0
0
0
0
0
0
0
0
0
0
0
0
0
0
0
0
0
0
0
0
0
0
0
0
0
0
0
0
0
0
0
0
0
0
0
0
0
0
0
0
0
0
0
0
0
0
0
0
0
0
0
0
0
0
0
0
0
0
0
0
0
0
0
0
0
0
0
0
0
0
0
0
0
0
0
0
0
0
0
0
0
0
0
0
0
0
0
0
0
0
0
0
0
0
0
0
0
0
0
0
0
0
0
0
0
0
0
0
0
0
0
0
0
0
0
0
0
0
0
0
0
0
0
)

// normalDirections

64
(
2(1 -1)
2(1 -1)
2(1 -1)
2(1 -1)
2(1 -1)
2(1 -1)
2(1 -1)
2(1 -1)
2(1 -1)
2(1 -1)
2(1 -1)
2(1 -1)
2(1 -1)
2(1 -1)
2(1 -1)
2(1 -1)
2(1 -1)
2(1 -1)
2(1 -1)
2(1 -1)
2(1 -1)
2(1 -1)
2(1 -1)
2(1 -1)
2(1 -1)
2(1 -1)
2(1 -1)
2(1 -1)
2(1 -1)
2(1 -1)
2(1 -1)
2(1 -1)
2(1 -1)
2(1 -1)
2(1 -1)
2(1 -1)
2(1 -1)
2(1 -1)
2(1 -1)
2(1 -1)
2(1 -1)
2(1 -1)
2(1 -1)
2(1 -1)
2(1 -1)
2(1 -1)
2(1 -1)
2(1 -1)
2(1 -1)
2(1 -1)
2(1 -1)
2(1 -1)
2(1 -1)
2(1 -1)
2(1 -1)
2(1 -1)
2(1 -1)
2(1 -1)
2(1 -1)
2(1 -1)
2(1 -1)
2(1 -1)
2(1 -1)
2(1 -1)
)

// edgeNormals

64
(
2(0 1)
2(2 3)
2(4 5)
2(6 7)
2(8 9)
2(10 11)
2(12 13)
2(14 15)
2(16 17)
2(18 19)
2(20 21)
2(22 23)
2(24 25)
2(26 27)
2(28 29)
2(30 31)
2(32 33)
2(34 35)
2(36 37)
2(38 39)
2(40 41)
2(42 43)
2(44 45)
2(46 47)
2(48 49)
2(50 51)
2(52 53)
2(54 55)
2(56 57)
2(58 59)
2(60 61)
2(62 63)
2(64 65)
2(66 67)
2(68 69)
2(70 71)
2(72 73)
2(74 75)
2(76 77)
2(78 79)
2(80 81)
2(82 83)
2(84 85)
2(86 87)
2(88 89)
2(90 91)
2(92 93)
2(94 95)
2(96 97)
2(98 99)
2(100 101)
2(102 103)
2(104 105)
2(106 107)
2(108 109)
2(110 111)
2(112 113)
2(114 115)
2(116 117)
2(118 119)
2(120 121)
2(122 123)
2(124 125)
2(126 127)
)

// featurePointNormals
0()
// featurePointEdges
0()
// regionEdges
0()


// ************************************************************************* //
