/*--------------------------------*- C++ -*----------------------------------*\
  =========                 |
  \\      /  F ield         | OpenFOAM: The Open Source CFD Toolbox
   \\    /   O peration     | Website:  https://openfoam.org
    \\  /    A nd           | Version:  12
     \\/     M anipulation  |
\*---------------------------------------------------------------------------*/
FoamFile
{
    format      ascii;
    class       extendedFeatureEdgeMesh;
    location    "constant/extendedFeatureEdgeMesh";
    object      rotorBlades.extendedFeatureEdgeMesh;
}
// * * * * * * * * * * * * * * * * * * * * * * * * * * * * * * * * * * * * * //

// points

32
(
(2.0495 2.81796 2.50157)
(2.0495 2.675 2.50157)
(2.05657 2.675 2.4945)
(2.05657 2.81796 2.4945)
(1.94343 2.675 2.3955)
(1.9505 2.675 2.38843)
(1.94343 2.81796 2.3955)
(1.9505 2.81796 2.38843)
(1.81796 2.9505 2.50157)
(1.675 2.9505 2.50157)
(1.675 2.94343 2.4945)
(1.81796 2.94343 2.4945)
(1.675 3.05657 2.3955)
(1.675 3.0495 2.38843)
(1.81796 3.05657 2.3955)
(1.81796 3.0495 2.38843)
(1.9505 3.18204 2.50157)
(1.9505 3.325 2.50157)
(1.94343 3.325 2.4945)
(1.94343 3.18204 2.4945)
(2.05657 3.325 2.3955)
(2.0495 3.325 2.38843)
(2.05657 3.18204 2.3955)
(2.0495 3.18204 2.38843)
(2.18204 3.0495 2.50157)
(2.325 3.0495 2.50157)
(2.325 3.05657 2.4945)
(2.18204 3.05657 2.4945)
(2.325 2.94343 2.3955)
(2.325 2.9505 2.38843)
(2.18204 2.94343 2.3955)
(2.18204 2.9505 2.38843)
)

// edges

48
(
(1 2)
(0 1)
(3 0)
(2 3)
(4 5)
(1 4)
(5 2)
(6 7)
(4 6)
(7 5)
(6 0)
(3 7)
(9 10)
(8 9)
(11 8)
(10 11)
(12 13)
(9 12)
(13 10)
(14 15)
(12 14)
(15 13)
(14 8)
(11 15)
(17 18)
(16 17)
(19 16)
(18 19)
(20 21)
(17 20)
(21 18)
(22 23)
(20 22)
(23 21)
(22 16)
(19 23)
(25 26)
(24 25)
(27 24)
(26 27)
(28 29)
(25 28)
(29 26)
(30 31)
(28 30)
(31 29)
(30 24)
(27 31)
)

// concaveStart mixedStart nonFeatureStart
32 32 32
// internalStart flatStart openStart multipleStart
48 48 48 48
// normals

48
(
(0.707095 0 0.707119)
(0 -1 -0)
(-0.707107 0 0.707106)
(0.707095 0 0.707119)
(0 1 0)
(0.707106 0 -0.707107)
(0 -1 0)
(-0.707107 0 -0.707107)
(-0.707107 0 0.707106)
(0.707106 0 -0.707107)
(-0.707107 0 -0.707107)
(-0 1 0)
(0 -0.707095 0.707119)
(-1 0 -0)
(-0 0.707107 0.707107)
(0 -0.707095 0.707119)
(1 0 0)
(0 -0.707107 -0.707107)
(-1 0 0)
(0 0.707095 -0.707119)
(0 0.707107 0.707107)
(-0 -0.707107 -0.707107)
(0 0.707095 -0.707119)
(1 0 0)
(-0.707107 0 0.707107)
(0 1 0)
(0.707106 0 0.707107)
(-0.707107 0 0.707107)
(0 -1 0)
(-0.707107 -0 -0.707106)
(0 1 0)
(0.707095 0 -0.707119)
(0.707106 -0 0.707107)
(-0.707107 0 -0.707106)
(0.707095 0 -0.707119)
(-0 -1 0)
(-0 0.707095 0.707119)
(1 0 0)
(0 -0.707107 0.707107)
(0 0.707095 0.707119)
(-1 0 0)
(0 0.707107 -0.707107)
(1 0 0)
(0 -0.707095 -0.707119)
(0 -0.707107 0.707107)
(0 0.707107 -0.707107)
(-0 -0.707095 -0.707119)
(-1 0 0)
)

// normal volume types

48
(
0
0
0
0
0
0
0
0
0
0
0
0
0
0
0
0
0
0
0
0
0
0
0
0
0
0
0
0
0
0
0
0
0
0
0
0
0
0
0
0
0
0
0
0
0
0
0
0
)

// normalDirections

48
(
2(1 -1)
2(1 -1)
2(1 -1)
2(1 -1)
2(1 -1)
2(1 -1)
2(1 -1)
2(1 -1)
2(1 -1)
2(1 -1)
2(1 -1)
2(1 -1)
2(1 -1)
2(1 -1)
2(1 -1)
2(1 -1)
2(1 -1)
2(1 -1)
2(1 -1)
2(1 -1)
2(1 -1)
2(1 -1)
2(1 -1)
2(1 -1)
2(1 -1)
2(1 -1)
2(1 -1)
2(1 -1)
2(1 -1)
2(1 -1)
2(1 -1)
2(1 -1)
2(1 -1)
2(1 -1)
2(1 -1)
2(1 -1)
2(1 -1)
2(1 -1)
2(1 -1)
2(1 -1)
2(1 -1)
2(1 -1)
2(1 -1)
2(1 -1)
2(1 -1)
2(1 -1)
2(1 -1)
2(1 -1)
)

// edgeNormals

48
(
2(0 1)
2(0 2)
2(3 4)
2(3 5)
2(6 7)
2(6 8)
2(1 9)
2(10 11)
2(10 8)
2(7 9)
2(4 2)
2(11 5)
2(12 13)
2(12 14)
2(15 16)
2(15 17)
2(18 19)
2(18 20)
2(13 21)
2(22 23)
2(22 20)
2(19 21)
2(16 14)
2(23 17)
2(24 25)
2(24 26)
2(27 28)
2(27 29)
2(30 31)
2(30 32)
2(25 33)
2(34 35)
2(34 32)
2(31 33)
2(28 26)
2(35 29)
2(36 37)
2(36 38)
2(39 40)
2(39 41)
2(42 43)
2(42 44)
2(37 45)
2(46 47)
2(46 44)
2(43 45)
2(40 38)
2(47 41)
)

// featurePointNormals

32
(
3(0 2 4)
3(0 1 2)
3(0 1 5)
3(3 4 5)
3(6 7 8)
3(6 7 9)
3(10 11 8)
3(10 11 9)
3(12 14 16)
3(12 13 14)
3(12 13 17)
3(15 16 17)
3(18 19 20)
3(18 19 21)
3(22 23 20)
3(22 23 21)
3(24 26 28)
3(24 25 26)
3(24 25 29)
3(27 28 29)
3(30 31 32)
3(30 31 33)
3(34 35 32)
3(34 35 33)
3(36 38 40)
3(36 37 38)
3(36 37 41)
3(39 40 41)
3(42 43 44)
3(42 43 45)
3(46 47 44)
3(46 47 45)
)

// featurePointEdges

32
(
3(2 10 1)
3(0 5 1)
3(3 6 0)
3(2 11 3)
3(4 8 5)
3(6 9 4)
3(7 10 8)
3(9 11 7)
3(14 22 13)
3(12 17 13)
3(15 18 12)
3(14 23 15)
3(16 20 17)
3(18 21 16)
3(19 22 20)
3(21 23 19)
3(26 34 25)
3(24 29 25)
3(27 30 24)
3(26 35 27)
3(28 32 29)
3(30 33 28)
3(31 34 32)
3(33 35 31)
3(38 46 37)
3(36 41 37)
3(39 42 36)
3(38 47 39)
3(40 44 41)
3(42 45 40)
3(43 46 44)
3(45 47 43)
)

// regionEdges
0()


// ************************************************************************* //
