/*--------------------------------*- C++ -*----------------------------------*\
  =========                 |
  \\      /  F ield         | OpenFOAM: The Open Source CFD Toolbox
   \\    /   O peration     | Website:  https://openfoam.org
    \\  /    A nd           | Version:  12
     \\/     M anipulation  |
\*---------------------------------------------------------------------------*/
FoamFile
{
    format      ascii;
    class       extendedFeatureEdgeMesh;
    location    "constant/extendedFeatureEdgeMesh";
    object      walls.extendedFeatureEdgeMesh;
}
// * * * * * * * * * * * * * * * * * * * * * * * * * * * * * * * * * * * * * //

// points

48
(
(4 6 0)
(0 6 0)
(4 6 3)
(0 6 3)
(0 0 0)
(0 0 3)
(4 0 0)
(4 0 3)
(0.206 2.66454e-15 0.7365)
(0.206 2.66454e-15 2.2885)
(1.508 2.66454e-15 0.7365)
(1.508 2.66454e-15 2.2885)
(0.571429 0 0)
(0 0 0.428571)
(0 0 2.57143)
(0.571429 0 3)
(1.14286 0 0)
(1.14286 0 3)
(1.71429 0 0)
(1.71429 0 3)
(2.28571 0 0)
(2.28571 0 3)
(2.85714 0 0)
(2.85714 0 3)
(3.42857 0 0)
(3.42857 0 3)
(4 0 0.428571)
(4 0 0.857143)
(4 0 1.28571)
(4 0 1.71429)
(4 0 2.14286)
(4 0 2.57143)
(0 0 0.857143)
(0.5315 2.66454e-15 0.7365)
(0.206 2.66454e-15 1.1245)
(0 0 1.28571)
(0.857 2.66454e-15 0.7365)
(0.206 2.66454e-15 1.5125)
(1.1825 2.66454e-15 0.7365)
(0.206 2.66454e-15 1.9005)
(0 0 1.71429)
(0 0 2.14286)
(0.5315 2.66454e-15 2.2885)
(0.857 2.66454e-15 2.2885)
(1.508 2.66454e-15 1.1245)
(1.508 2.66454e-15 1.5125)
(1.1825 2.66454e-15 2.2885)
(1.508 2.66454e-15 1.9005)
)

// edges

56
(
(0 1)
(2 0)
(3 2)
(1 3)
(4 1)
(0 6)
(5 3)
(2 7)
(12 4)
(4 13)
(14 5)
(5 15)
(16 12)
(15 17)
(18 16)
(17 19)
(20 18)
(19 21)
(22 20)
(21 23)
(24 22)
(23 25)
(26 6)
(6 24)
(27 26)
(28 27)
(29 28)
(30 29)
(31 30)
(7 31)
(25 7)
(13 32)
(8 33)
(34 8)
(32 35)
(33 36)
(37 34)
(36 38)
(9 39)
(40 41)
(35 40)
(41 14)
(39 37)
(42 9)
(43 42)
(38 10)
(10 44)
(44 45)
(11 46)
(46 43)
(47 11)
(45 47)
(6 4)
(7 5)
(5 4)
(7 6)
)

// concaveStart mixedStart nonFeatureStart
2 2 12
// internalStart flatStart openStart multipleStart
6 8 8 56
// normals

52
(
(0 1 0)
(0 1 0)
(0 1 0)
(0 1 0)
(0 1 0)
(0 1 0)
(0 1 0)
(0 1 0)
(0 1 0)
(0 1 0)
(0 1 0)
(0 1 0)
(0 1 0)
(0 1 0)
(0 1 0)
(0 1 0)
(0 1 0)
(0 1 0)
(0 1 0)
(0 1 0)
(0 1 0)
(-1.29346e-14 1 0)
(0 1 -8.65309e-15)
(-1.29346e-14 1 0)
(-1.29346e-14 1 0)
(0 1 -8.65309e-15)
(-1.29346e-14 1 0)
(0 1 -8.65309e-15)
(-1.29346e-14 1 0)
(-1.29346e-14 1 0)
(-1.29346e-14 1 0)
(-1.29346e-14 1 0)
(-1.29346e-14 1 0)
(-0 1 9.4177e-15)
(-0 1 9.4177e-15)
(0 1 -8.65309e-15)
(1.29167e-14 1 0)
(1.29167e-14 1 0)
(-0 1 9.4177e-15)
(-0 1 9.4177e-15)
(1.29167e-14 1 0)
(1.29167e-14 1 0)
(0 0 -1)
(0 0 -1)
(1 0 0)
(1 0 0)
(0 1 0)
(0 0 -1)
(1 0 0)
(0 1 0)
(0 0 -1)
(1 0 0)
)

// normal volume types

52
(
0
0
0
0
0
0
0
0
0
0
0
0
0
0
0
0
0
0
0
0
0
0
0
0
0
0
0
0
0
0
0
0
0
0
0
0
0
0
0
0
0
0
0
0
0
0
0
0
0
0
0
0
)

// normalDirections

56
(
2(1 -1)
2(1 -1)
2{1}
2{1}
2{1}
2(1 -1)
2(1 -1)
2{1}
1(1)
1(1)
1(1)
1(1)
1(1)
1(1)
1(1)
1(1)
1(1)
1(1)
1(1)
1(1)
1(1)
1(1)
1(1)
1(1)
1(1)
1(1)
1(1)
1(1)
1(1)
1(1)
1(1)
1(1)
1(1)
1(1)
1(1)
1(1)
1(1)
1(1)
1(1)
1(1)
1(1)
1(1)
1(1)
1(1)
1(1)
1(1)
1(1)
1(1)
1(1)
1(1)
1(1)
1(1)
1(1)
1(1)
1(1)
1(1)
)

// edgeNormals

56
(
2(46 47)
2(46 48)
2(49 50)
2(49 51)
2(47 51)
2(42 48)
2(43 44)
2(50 45)
1(0)
1(1)
1(2)
1(2)
1(3)
1(4)
1(5)
1(6)
1(7)
1(8)
1(9)
1(10)
1(11)
1(12)
1(13)
1(13)
1(14)
1(15)
1(16)
1(17)
1(18)
1(19)
1(20)
1(21)
1(22)
1(23)
1(24)
1(25)
1(26)
1(27)
1(28)
1(29)
1(30)
1(31)
1(32)
1(33)
1(34)
1(35)
1(36)
1(37)
1(38)
1(39)
1(40)
1(41)
1(42)
1(43)
1(44)
1(45)
)

// featurePointNormals

12
(
3(46 47 48)
3(46 47 51)
3(46 48 50)
3(49 50 51)
3(47 51 0)
3(43 44 2)
3(42 48 13)
3(50 45 19)
1(22)
1(28)
1(35)
1(38)
)

// featurePointEdges

12
(
3(0 5 1)
3(3 4 0)
3(2 7 1)
3(2 6 3)
5(4 8 9 52 54)
5(6 10 11 53 54)
5(5 22 23 52 55)
5(7 29 30 53 55)
2(32 33)
2(38 43)
2(45 46)
2(48 50)
)

// regionEdges

48
(
8
9
10
11
12
13
14
15
16
17
18
19
20
21
22
23
24
25
26
27
28
29
30
31
32
33
34
35
36
37
38
39
40
41
42
43
44
45
46
47
48
49
50
51
52
53
54
55
)



// ************************************************************************* //
