/*--------------------------------*- C++ -*----------------------------------*\
  =========                 |
  \\      /  F ield         | OpenFOAM: The Open Source CFD Toolbox
   \\    /   O peration     | Website:  https://openfoam.org
    \\  /    A nd           | Version:  12
     \\/     M anipulation  |
\*---------------------------------------------------------------------------*/
FoamFile
{
    format      ascii;
    class       extendedFeatureEdgeMesh;
    location    "constant/extendedFeatureEdgeMesh";
    object      window.extendedFeatureEdgeMesh;
}
// * * * * * * * * * * * * * * * * * * * * * * * * * * * * * * * * * * * * * //

// points

700
(
(1.508 2.66454e-15 2.2885)
(1.508 -0.2025 2.2885)
(1.508 -0.2025 0.7365)
(1.508 2.66454e-15 0.7365)
(0.206 -0.2025 2.2885)
(0.206 2.66454e-15 2.2885)
(0.206 -0.2025 0.7365)
(0.206 2.66454e-15 0.7365)
(1.458 -0.1825 2.2385)
(1.458 -0.1825 0.7865)
(1.447 -0.1675 2.2275)
(1.447 -0.1675 0.7975)
(1.436 -0.1525 2.2165)
(1.436 -0.1525 0.8085)
(1.428 -0.1075 2.2085)
(1.428 -0.1075 0.8165)
(0.256 -0.1825 2.2385)
(0.256 -0.1825 0.7865)
(0.267 -0.1675 2.2275)
(0.267 -0.1675 0.7975)
(0.278 -0.1525 2.2165)
(0.278 -0.1525 0.8085)
(0.286 -0.1075 2.2085)
(0.286 -0.1075 0.8165)
(1.458 -0.2025 2.2385)
(1.458 -0.2025 0.7865)
(1.447 -0.1825 2.2275)
(1.447 -0.1825 0.7975)
(1.436 -0.1675 2.2165)
(1.436 -0.1675 0.8085)
(1.428 -0.1525 2.2085)
(1.428 -0.1525 0.8165)
(1.377 2.66454e-15 0.8675)
(1.377 2.66454e-15 2.1575)
(1.377 -0.1075 2.1575)
(1.377 -0.1075 0.8675)
(0.256 -0.2025 2.2385)
(0.256 -0.2025 0.7865)
(0.267 -0.1825 2.2275)
(0.267 -0.1825 0.7975)
(0.278 -0.1675 2.2165)
(0.278 -0.1675 0.8085)
(0.286 -0.1525 2.2085)
(0.286 -0.1525 0.8165)
(0.337 2.66454e-15 0.8675)
(0.337 2.66454e-15 2.1575)
(0.337 -0.1075 2.1575)
(0.337 -0.1075 0.8675)
(1.458 -0.2025 2.15783)
(1.458 -0.2025 1.9965)
(1.458 -0.2025 2.07717)
(1.458 -0.2025 1.83517)
(1.458 -0.2025 1.91583)
(1.458 -0.2025 1.67383)
(1.458 -0.2025 1.7545)
(1.458 -0.2025 1.59317)
(1.458 -0.2025 1.43183)
(1.458 -0.2025 1.5125)
(1.458 -0.2025 1.2705)
(1.458 -0.2025 1.35117)
(1.458 -0.2025 1.18983)
(1.458 -0.2025 1.0285)
(1.458 -0.2025 1.10917)
(1.458 -0.2025 0.867167)
(1.458 -0.2025 0.947833)
(1.447 -0.1825 2.1625)
(1.447 -0.1825 2.0325)
(1.447 -0.1825 2.0975)
(1.447 -0.1825 1.9675)
(1.447 -0.1825 1.8375)
(1.447 -0.1825 1.9025)
(1.447 -0.1825 1.7725)
(1.447 -0.1825 1.6425)
(1.447 -0.1825 1.7075)
(1.447 -0.1825 1.5775)
(1.447 -0.1825 1.4475)
(1.447 -0.1825 1.5125)
(1.447 -0.1825 1.3825)
(1.447 -0.1825 1.2525)
(1.447 -0.1825 1.3175)
(1.447 -0.1825 1.1875)
(1.447 -0.1825 1.0575)
(1.447 -0.1825 1.1225)
(1.447 -0.1825 0.9925)
(1.447 -0.1825 0.8625)
(1.447 -0.1825 0.9275)
(1.436 -0.1675 2.1525)
(1.436 -0.1675 2.0245)
(1.436 -0.1675 2.0885)
(1.436 -0.1675 1.9605)
(1.436 -0.1675 1.8325)
(1.436 -0.1675 1.8965)
(1.436 -0.1675 1.7685)
(1.436 -0.1675 1.6405)
(1.436 -0.1675 1.7045)
(1.436 -0.1675 1.5765)
(1.436 -0.1675 1.4485)
(1.436 -0.1675 1.5125)
(1.436 -0.1675 1.3845)
(1.436 -0.1675 1.2565)
(1.436 -0.1675 1.3205)
(1.436 -0.1675 1.1925)
(1.436 -0.1675 1.0645)
(1.436 -0.1675 1.1285)
(1.436 -0.1675 1.0005)
(1.436 -0.1675 0.8725)
(1.436 -0.1675 0.9365)
(1.428 -0.1525 2.0693)
(1.428 -0.1525 1.7909)
(1.428 -0.1525 1.9301)
(1.428 -0.1525 1.6517)
(1.428 -0.1525 1.3733)
(1.428 -0.1525 1.5125)
(1.428 -0.1525 1.2341)
(1.428 -0.1525 0.9557)
(1.428 -0.1525 1.0949)
(1.377 2.66454e-15 0.9191)
(1.377 2.66454e-15 0.9707)
(1.377 2.66454e-15 1.0739)
(1.377 2.66454e-15 1.0223)
(1.377 2.66454e-15 1.1255)
(1.377 2.66454e-15 1.2287)
(1.377 2.66454e-15 1.1771)
(1.377 2.66454e-15 1.2803)
(1.377 2.66454e-15 1.3835)
(1.377 2.66454e-15 1.3319)
(1.377 2.66454e-15 1.4867)
(1.377 2.66454e-15 1.4351)
(1.377 2.66454e-15 1.5383)
(1.377 2.66454e-15 1.5899)
(1.377 2.66454e-15 1.6415)
(1.377 2.66454e-15 1.7447)
(1.377 2.66454e-15 1.6931)
(1.377 2.66454e-15 1.7963)
(1.377 2.66454e-15 1.8995)
(1.377 2.66454e-15 1.8479)
(1.377 2.66454e-15 1.9511)
(1.377 2.66454e-15 2.0543)
(1.377 2.66454e-15 2.0027)
(1.377 2.66454e-15 2.1059)
(1.377 -0.1075 2.01417)
(1.377 -0.1075 1.7275)
(1.377 -0.1075 1.87083)
(1.377 -0.1075 1.58417)
(1.377 -0.1075 1.44083)
(1.377 -0.1075 1.2975)
(1.377 -0.1075 1.15417)
(1.377 -0.1075 1.01083)
(1.508 2.66454e-15 2.1333)
(1.508 -0.2025 2.1333)
(1.508 2.66454e-15 1.8229)
(1.508 2.66454e-15 1.9781)
(1.508 -0.2025 1.9781)
(1.508 -0.2025 1.8229)
(1.508 2.66454e-15 1.6677)
(1.508 -0.2025 1.6677)
(1.508 2.66454e-15 1.3573)
(1.508 2.66454e-15 1.5125)
(1.508 -0.2025 1.5125)
(1.508 -0.2025 1.3573)
(1.508 2.66454e-15 1.2021)
(1.508 -0.2025 1.2021)
(1.508 2.66454e-15 0.8917)
(1.508 2.66454e-15 1.0469)
(1.508 -0.2025 1.0469)
(1.508 -0.2025 0.8917)
(0.256 -0.2025 2.15783)
(0.256 -0.2025 2.07717)
(0.256 -0.2025 1.9965)
(0.256 -0.2025 1.91583)
(0.256 -0.2025 1.83517)
(0.256 -0.2025 1.7545)
(0.256 -0.2025 1.67383)
(0.256 -0.2025 1.59317)
(0.256 -0.2025 1.5125)
(0.256 -0.2025 1.43183)
(0.256 -0.2025 1.35117)
(0.256 -0.2025 1.2705)
(0.256 -0.2025 1.18983)
(0.256 -0.2025 1.10917)
(0.256 -0.2025 1.0285)
(0.256 -0.2025 0.947833)
(0.256 -0.2025 0.867167)
(0.267 -0.1825 2.1625)
(0.267 -0.1825 2.0975)
(0.267 -0.1825 2.0325)
(0.267 -0.1825 1.9675)
(0.267 -0.1825 1.9025)
(0.267 -0.1825 1.8375)
(0.267 -0.1825 1.7725)
(0.267 -0.1825 1.7075)
(0.267 -0.1825 1.6425)
(0.267 -0.1825 1.5775)
(0.267 -0.1825 1.5125)
(0.267 -0.1825 1.4475)
(0.267 -0.1825 1.3825)
(0.267 -0.1825 1.3175)
(0.267 -0.1825 1.2525)
(0.267 -0.1825 1.1875)
(0.267 -0.1825 1.1225)
(0.267 -0.1825 1.0575)
(0.267 -0.1825 0.9925)
(0.267 -0.1825 0.9275)
(0.267 -0.1825 0.8625)
(0.278 -0.1675 2.1525)
(0.278 -0.1675 2.0885)
(0.278 -0.1675 2.0245)
(0.278 -0.1675 1.9605)
(0.278 -0.1675 1.8965)
(0.278 -0.1675 1.8325)
(0.278 -0.1675 1.7685)
(0.278 -0.1675 1.7045)
(0.278 -0.1675 1.6405)
(0.278 -0.1675 1.5765)
(0.278 -0.1675 1.5125)
(0.278 -0.1675 1.4485)
(0.278 -0.1675 1.3845)
(0.278 -0.1675 1.3205)
(0.278 -0.1675 1.2565)
(0.278 -0.1675 1.1925)
(0.278 -0.1675 1.1285)
(0.278 -0.1675 1.0645)
(0.278 -0.1675 1.0005)
(0.278 -0.1675 0.9365)
(0.278 -0.1675 0.8725)
(0.286 -0.1525 2.0693)
(0.286 -0.1525 1.9301)
(0.286 -0.1525 1.7909)
(0.286 -0.1525 1.6517)
(0.286 -0.1525 1.5125)
(0.286 -0.1525 1.3733)
(0.286 -0.1525 1.2341)
(0.286 -0.1525 1.0949)
(0.286 -0.1525 0.9557)
(0.337 2.66454e-15 0.9191)
(0.337 2.66454e-15 0.9707)
(0.337 2.66454e-15 1.0223)
(0.337 2.66454e-15 1.0739)
(0.337 2.66454e-15 1.1255)
(0.337 2.66454e-15 1.1771)
(0.337 2.66454e-15 1.2287)
(0.337 2.66454e-15 1.2803)
(0.337 2.66454e-15 1.3319)
(0.337 2.66454e-15 1.3835)
(0.337 2.66454e-15 1.4351)
(0.337 2.66454e-15 1.4867)
(0.337 2.66454e-15 1.5383)
(0.337 2.66454e-15 1.5899)
(0.337 2.66454e-15 1.6415)
(0.337 2.66454e-15 1.6931)
(0.337 2.66454e-15 1.7447)
(0.337 2.66454e-15 1.7963)
(0.337 2.66454e-15 1.8479)
(0.337 2.66454e-15 1.8995)
(0.337 2.66454e-15 1.9511)
(0.337 2.66454e-15 2.0027)
(0.337 2.66454e-15 2.0543)
(0.337 2.66454e-15 2.1059)
(0.337 -0.1075 2.01417)
(0.337 -0.1075 1.87083)
(0.337 -0.1075 1.7275)
(0.337 -0.1075 1.58417)
(0.337 -0.1075 1.44083)
(0.337 -0.1075 1.2975)
(0.337 -0.1075 1.15417)
(0.337 -0.1075 1.01083)
(0.206 -0.2025 2.1333)
(0.206 2.66454e-15 2.1333)
(0.206 -0.2025 1.8229)
(0.206 -0.2025 1.9781)
(0.206 2.66454e-15 1.9781)
(0.206 2.66454e-15 1.8229)
(0.206 -0.2025 1.6677)
(0.206 2.66454e-15 1.6677)
(0.206 -0.2025 1.3573)
(0.206 -0.2025 1.5125)
(0.206 2.66454e-15 1.5125)
(0.206 2.66454e-15 1.3573)
(0.206 -0.2025 1.2021)
(0.206 2.66454e-15 1.2021)
(0.206 -0.2025 0.8917)
(0.206 -0.2025 1.0469)
(0.206 2.66454e-15 1.0469)
(0.206 2.66454e-15 0.8917)
(1.37787 -0.2025 0.7865)
(1.2176 -0.2025 0.7865)
(1.29773 -0.2025 0.7865)
(1.05733 -0.2025 0.7865)
(1.13747 -0.2025 0.7865)
(0.897067 -0.2025 0.7865)
(0.9772 -0.2025 0.7865)
(0.7368 -0.2025 0.7865)
(0.816933 -0.2025 0.7865)
(0.576533 -0.2025 0.7865)
(0.656667 -0.2025 0.7865)
(0.416267 -0.2025 0.7865)
(0.4964 -0.2025 0.7865)
(0.336133 -0.2025 0.7865)
(1.38489 -0.1825 0.7975)
(1.26068 -0.1825 0.7975)
(1.32279 -0.1825 0.7975)
(1.19858 -0.1825 0.7975)
(1.07437 -0.1825 0.7975)
(1.13647 -0.1825 0.7975)
(0.950158 -0.1825 0.7975)
(1.01226 -0.1825 0.7975)
(0.888053 -0.1825 0.7975)
(0.763842 -0.1825 0.7975)
(0.825947 -0.1825 0.7975)
(0.639632 -0.1825 0.7975)
(0.701737 -0.1825 0.7975)
(0.577526 -0.1825 0.7975)
(0.453316 -0.1825 0.7975)
(0.515421 -0.1825 0.7975)
(0.329105 -0.1825 0.7975)
(0.391211 -0.1825 0.7975)
(1.37167 -0.1675 0.8085)
(1.243 -0.1675 0.8085)
(1.30733 -0.1675 0.8085)
(1.11433 -0.1675 0.8085)
(1.17867 -0.1675 0.8085)
(0.985667 -0.1675 0.8085)
(1.05 -0.1675 0.8085)
(0.921333 -0.1675 0.8085)
(0.792667 -0.1675 0.8085)
(0.857 -0.1675 0.8085)
(0.664 -0.1675 0.8085)
(0.728333 -0.1675 0.8085)
(0.599667 -0.1675 0.8085)
(0.471 -0.1675 0.8085)
(0.535333 -0.1675 0.8085)
(0.342333 -0.1675 0.8085)
(0.406667 -0.1675 0.8085)
(1.28525 -0.1525 0.8165)
(0.99975 -0.1525 0.8165)
(1.1425 -0.1525 0.8165)
(0.71425 -0.1525 0.8165)
(0.857 -0.1525 0.8165)
(0.42875 -0.1525 0.8165)
(0.5715 -0.1525 0.8165)
(1.37167 -0.1675 2.2165)
(1.30733 -0.1675 2.2165)
(1.243 -0.1675 2.2165)
(1.17867 -0.1675 2.2165)
(1.11433 -0.1675 2.2165)
(1.05 -0.1675 2.2165)
(0.985667 -0.1675 2.2165)
(0.921333 -0.1675 2.2165)
(0.857 -0.1675 2.2165)
(0.792667 -0.1675 2.2165)
(0.728333 -0.1675 2.2165)
(0.664 -0.1675 2.2165)
(0.599667 -0.1675 2.2165)
(0.535333 -0.1675 2.2165)
(0.471 -0.1675 2.2165)
(0.406667 -0.1675 2.2165)
(0.342333 -0.1675 2.2165)
(1.28525 -0.1525 2.2085)
(1.1425 -0.1525 2.2085)
(0.99975 -0.1525 2.2085)
(0.857 -0.1525 2.2085)
(0.71425 -0.1525 2.2085)
(0.5715 -0.1525 2.2085)
(0.42875 -0.1525 2.2085)
(1.37787 -0.2025 2.2385)
(1.29773 -0.2025 2.2385)
(1.2176 -0.2025 2.2385)
(1.13747 -0.2025 2.2385)
(1.05733 -0.2025 2.2385)
(0.9772 -0.2025 2.2385)
(0.897067 -0.2025 2.2385)
(0.816933 -0.2025 2.2385)
(0.7368 -0.2025 2.2385)
(0.656667 -0.2025 2.2385)
(0.576533 -0.2025 2.2385)
(0.4964 -0.2025 2.2385)
(0.416267 -0.2025 2.2385)
(0.336133 -0.2025 2.2385)
(1.38489 -0.1825 2.2275)
(1.32279 -0.1825 2.2275)
(1.26068 -0.1825 2.2275)
(1.19858 -0.1825 2.2275)
(1.13647 -0.1825 2.2275)
(1.07437 -0.1825 2.2275)
(1.01226 -0.1825 2.2275)
(0.950158 -0.1825 2.2275)
(0.888053 -0.1825 2.2275)
(0.825947 -0.1825 2.2275)
(0.763842 -0.1825 2.2275)
(0.701737 -0.1825 2.2275)
(0.639632 -0.1825 2.2275)
(0.577526 -0.1825 2.2275)
(0.515421 -0.1825 2.2275)
(0.453316 -0.1825 2.2275)
(0.391211 -0.1825 2.2275)
(0.329105 -0.1825 2.2275)
(1.34525 -0.2025 0.7365)
(1.34525 2.66454e-15 0.7365)
(1.1825 -0.2025 0.7365)
(1.01975 -0.2025 0.7365)
(1.01975 2.66454e-15 0.7365)
(1.1825 2.66454e-15 0.7365)
(0.857 2.66454e-15 0.7365)
(0.857 -0.2025 0.7365)
(0.69425 -0.2025 0.7365)
(0.5315 -0.2025 0.7365)
(0.5315 2.66454e-15 0.7365)
(0.69425 2.66454e-15 0.7365)
(0.36875 2.66454e-15 0.7365)
(0.36875 -0.2025 0.7365)
(1.34525 -0.2025 2.2885)
(1.34525 2.66454e-15 2.2885)
(1.01975 -0.2025 2.2885)
(1.1825 -0.2025 2.2885)
(1.1825 2.66454e-15 2.2885)
(1.01975 2.66454e-15 2.2885)
(0.69425 -0.2025 2.2885)
(0.857 -0.2025 2.2885)
(0.857 2.66454e-15 2.2885)
(0.69425 2.66454e-15 2.2885)
(0.36875 -0.2025 2.2885)
(0.5315 -0.2025 2.2885)
(0.5315 2.66454e-15 2.2885)
(0.36875 2.66454e-15 2.2885)
(0.485571 2.66454e-15 2.1575)
(0.634143 2.66454e-15 2.1575)
(0.782714 2.66454e-15 2.1575)
(0.485571 2.66454e-15 0.8675)
(0.634143 2.66454e-15 0.8675)
(0.782714 2.66454e-15 0.8675)
(0.931286 2.66454e-15 2.1575)
(1.07986 2.66454e-15 2.1575)
(1.22843 2.66454e-15 2.1575)
(0.931286 2.66454e-15 0.8675)
(1.07986 2.66454e-15 0.8675)
(1.22843 2.66454e-15 0.8675)
(0.485571 -0.1075 2.1575)
(0.634143 -0.1075 2.1575)
(0.782714 -0.1075 2.1575)
(0.931286 -0.1075 2.1575)
(1.07986 -0.1075 2.1575)
(1.22843 -0.1075 2.1575)
(0.485571 -0.1075 0.8675)
(0.634143 -0.1075 0.8675)
(0.782714 -0.1075 0.8675)
(0.931286 -0.1075 0.8675)
(1.07986 -0.1075 0.8675)
(1.22843 -0.1075 0.8675)
(1.458 -0.1825 2.15783)
(1.458 -0.1825 2.07717)
(1.458 -0.1825 1.9965)
(1.458 -0.1825 1.91583)
(1.458 -0.1825 1.83517)
(1.458 -0.1825 1.7545)
(1.458 -0.1825 1.67383)
(1.458 -0.1825 1.59317)
(1.458 -0.1825 1.5125)
(1.458 -0.1825 1.43183)
(1.458 -0.1825 1.35117)
(1.458 -0.1825 1.2705)
(1.458 -0.1825 1.18983)
(1.458 -0.1825 1.10917)
(1.458 -0.1825 1.0285)
(1.458 -0.1825 0.947833)
(1.458 -0.1825 0.867167)
(1.447 -0.1675 2.1625)
(1.447 -0.1675 2.0975)
(1.447 -0.1675 2.0325)
(1.447 -0.1675 1.9675)
(1.447 -0.1675 1.9025)
(1.447 -0.1675 1.8375)
(1.447 -0.1675 1.7725)
(1.447 -0.1675 1.7075)
(1.447 -0.1675 1.6425)
(1.447 -0.1675 1.5775)
(1.447 -0.1675 1.5125)
(1.447 -0.1675 1.4475)
(1.447 -0.1675 1.3825)
(1.447 -0.1675 1.3175)
(1.447 -0.1675 1.2525)
(1.447 -0.1675 1.1875)
(1.447 -0.1675 1.1225)
(1.447 -0.1675 1.0575)
(1.447 -0.1675 0.9925)
(1.447 -0.1675 0.9275)
(1.447 -0.1675 0.8625)
(1.436 -0.1525 2.1525)
(1.436 -0.1525 2.0885)
(1.436 -0.1525 2.0245)
(1.436 -0.1525 1.9605)
(1.436 -0.1525 1.8965)
(1.436 -0.1525 1.8325)
(1.436 -0.1525 1.7685)
(1.436 -0.1525 1.7045)
(1.436 -0.1525 1.6405)
(1.436 -0.1525 1.5765)
(1.436 -0.1525 1.5125)
(1.436 -0.1525 1.4485)
(1.436 -0.1525 1.3845)
(1.436 -0.1525 1.3205)
(1.436 -0.1525 1.2565)
(1.436 -0.1525 1.1925)
(1.436 -0.1525 1.1285)
(1.436 -0.1525 1.0645)
(1.436 -0.1525 1.0005)
(1.436 -0.1525 0.9365)
(1.436 -0.1525 0.8725)
(1.428 -0.1075 2.0693)
(1.428 -0.1075 1.9301)
(1.428 -0.1075 1.7909)
(1.428 -0.1075 1.6517)
(1.428 -0.1075 1.5125)
(1.428 -0.1075 1.3733)
(1.428 -0.1075 1.2341)
(1.428 -0.1075 1.0949)
(1.428 -0.1075 0.9557)
(1.377 -0.0125 0.8675)
(1.377 -0.0125 2.1575)
(0.256 -0.1825 2.15783)
(0.256 -0.1825 1.9965)
(0.256 -0.1825 2.07717)
(0.256 -0.1825 1.83517)
(0.256 -0.1825 1.91583)
(0.256 -0.1825 1.67383)
(0.256 -0.1825 1.7545)
(0.256 -0.1825 1.59317)
(0.256 -0.1825 1.43183)
(0.256 -0.1825 1.5125)
(0.256 -0.1825 1.2705)
(0.256 -0.1825 1.35117)
(0.256 -0.1825 1.18983)
(0.256 -0.1825 1.0285)
(0.256 -0.1825 1.10917)
(0.256 -0.1825 0.867167)
(0.256 -0.1825 0.947833)
(0.267 -0.1675 2.1625)
(0.267 -0.1675 2.0325)
(0.267 -0.1675 2.0975)
(0.267 -0.1675 1.9675)
(0.267 -0.1675 1.8375)
(0.267 -0.1675 1.9025)
(0.267 -0.1675 1.7725)
(0.267 -0.1675 1.6425)
(0.267 -0.1675 1.7075)
(0.267 -0.1675 1.5775)
(0.267 -0.1675 1.4475)
(0.267 -0.1675 1.5125)
(0.267 -0.1675 1.3825)
(0.267 -0.1675 1.2525)
(0.267 -0.1675 1.3175)
(0.267 -0.1675 1.1875)
(0.267 -0.1675 1.0575)
(0.267 -0.1675 1.1225)
(0.267 -0.1675 0.9925)
(0.267 -0.1675 0.8625)
(0.267 -0.1675 0.9275)
(0.278 -0.1525 2.1525)
(0.278 -0.1525 2.0245)
(0.278 -0.1525 2.0885)
(0.278 -0.1525 1.9605)
(0.278 -0.1525 1.8325)
(0.278 -0.1525 1.8965)
(0.278 -0.1525 1.7685)
(0.278 -0.1525 1.6405)
(0.278 -0.1525 1.7045)
(0.278 -0.1525 1.5765)
(0.278 -0.1525 1.4485)
(0.278 -0.1525 1.5125)
(0.278 -0.1525 1.3845)
(0.278 -0.1525 1.2565)
(0.278 -0.1525 1.3205)
(0.278 -0.1525 1.1925)
(0.278 -0.1525 1.0645)
(0.278 -0.1525 1.1285)
(0.278 -0.1525 1.0005)
(0.278 -0.1525 0.8725)
(0.278 -0.1525 0.9365)
(0.286 -0.1075 2.0693)
(0.286 -0.1075 1.7909)
(0.286 -0.1075 1.9301)
(0.286 -0.1075 1.6517)
(0.286 -0.1075 1.3733)
(0.286 -0.1075 1.5125)
(0.286 -0.1075 1.2341)
(0.286 -0.1075 0.9557)
(0.286 -0.1075 1.0949)
(0.337 -0.0125 0.8675)
(0.337 -0.0125 2.1575)
(1.37787 -0.1825 0.7865)
(1.29773 -0.1825 0.7865)
(1.2176 -0.1825 0.7865)
(1.13747 -0.1825 0.7865)
(1.05733 -0.1825 0.7865)
(0.9772 -0.1825 0.7865)
(0.897067 -0.1825 0.7865)
(0.816933 -0.1825 0.7865)
(0.7368 -0.1825 0.7865)
(0.656667 -0.1825 0.7865)
(0.576533 -0.1825 0.7865)
(0.4964 -0.1825 0.7865)
(0.416267 -0.1825 0.7865)
(0.336133 -0.1825 0.7865)
(1.38489 -0.1675 0.7975)
(1.32279 -0.1675 0.7975)
(1.26068 -0.1675 0.7975)
(1.19858 -0.1675 0.7975)
(1.13647 -0.1675 0.7975)
(1.07437 -0.1675 0.7975)
(1.01226 -0.1675 0.7975)
(0.950158 -0.1675 0.7975)
(0.888053 -0.1675 0.7975)
(0.825947 -0.1675 0.7975)
(0.763842 -0.1675 0.7975)
(0.701737 -0.1675 0.7975)
(0.639632 -0.1675 0.7975)
(0.577526 -0.1675 0.7975)
(0.515421 -0.1675 0.7975)
(0.453316 -0.1675 0.7975)
(0.391211 -0.1675 0.7975)
(0.329105 -0.1675 0.7975)
(1.37167 -0.1525 0.8085)
(1.30733 -0.1525 0.8085)
(1.243 -0.1525 0.8085)
(1.17867 -0.1525 0.8085)
(1.11433 -0.1525 0.8085)
(1.05 -0.1525 0.8085)
(0.985667 -0.1525 0.8085)
(0.921333 -0.1525 0.8085)
(0.857 -0.1525 0.8085)
(0.792667 -0.1525 0.8085)
(0.728333 -0.1525 0.8085)
(0.664 -0.1525 0.8085)
(0.599667 -0.1525 0.8085)
(0.535333 -0.1525 0.8085)
(0.471 -0.1525 0.8085)
(0.406667 -0.1525 0.8085)
(0.342333 -0.1525 0.8085)
(1.28525 -0.1075 0.8165)
(1.1425 -0.1075 0.8165)
(0.99975 -0.1075 0.8165)
(0.857 -0.1075 0.8165)
(0.71425 -0.1075 0.8165)
(0.5715 -0.1075 0.8165)
(0.42875 -0.1075 0.8165)
(1.37167 -0.1525 2.2165)
(1.243 -0.1525 2.2165)
(1.30733 -0.1525 2.2165)
(1.11433 -0.1525 2.2165)
(1.17867 -0.1525 2.2165)
(0.985667 -0.1525 2.2165)
(1.05 -0.1525 2.2165)
(0.921333 -0.1525 2.2165)
(0.792667 -0.1525 2.2165)
(0.857 -0.1525 2.2165)
(0.664 -0.1525 2.2165)
(0.728333 -0.1525 2.2165)
(0.599667 -0.1525 2.2165)
(0.471 -0.1525 2.2165)
(0.535333 -0.1525 2.2165)
(0.342333 -0.1525 2.2165)
(0.406667 -0.1525 2.2165)
(1.28525 -0.1075 2.2085)
(0.99975 -0.1075 2.2085)
(1.1425 -0.1075 2.2085)
(0.71425 -0.1075 2.2085)
(0.857 -0.1075 2.2085)
(0.42875 -0.1075 2.2085)
(0.5715 -0.1075 2.2085)
(1.37787 -0.1825 2.2385)
(1.2176 -0.1825 2.2385)
(1.29773 -0.1825 2.2385)
(1.05733 -0.1825 2.2385)
(1.13747 -0.1825 2.2385)
(0.897067 -0.1825 2.2385)
(0.9772 -0.1825 2.2385)
(0.7368 -0.1825 2.2385)
(0.816933 -0.1825 2.2385)
(0.576533 -0.1825 2.2385)
(0.656667 -0.1825 2.2385)
(0.416267 -0.1825 2.2385)
(0.4964 -0.1825 2.2385)
(0.336133 -0.1825 2.2385)
(1.38489 -0.1675 2.2275)
(1.26068 -0.1675 2.2275)
(1.32279 -0.1675 2.2275)
(1.19858 -0.1675 2.2275)
(1.07437 -0.1675 2.2275)
(1.13647 -0.1675 2.2275)
(0.950158 -0.1675 2.2275)
(1.01226 -0.1675 2.2275)
(0.888053 -0.1675 2.2275)
(0.763842 -0.1675 2.2275)
(0.825947 -0.1675 2.2275)
(0.639632 -0.1675 2.2275)
(0.701737 -0.1675 2.2275)
(0.577526 -0.1675 2.2275)
(0.453316 -0.1675 2.2275)
(0.515421 -0.1675 2.2275)
(0.329105 -0.1675 2.2275)
(0.391211 -0.1675 2.2275)
)

// edges

724
(
(48 24)
(49 50)
(50 48)
(51 52)
(53 54)
(55 53)
(54 51)
(52 49)
(56 57)
(58 59)
(60 58)
(59 56)
(61 62)
(63 64)
(25 63)
(64 61)
(62 60)
(57 55)
(65 26)
(66 67)
(68 66)
(67 65)
(69 70)
(71 69)
(72 73)
(74 72)
(73 71)
(70 68)
(75 76)
(77 75)
(78 79)
(80 78)
(79 77)
(81 82)
(83 81)
(84 85)
(27 84)
(85 83)
(82 80)
(76 74)
(86 28)
(87 88)
(89 87)
(88 86)
(90 91)
(92 90)
(93 94)
(95 93)
(94 92)
(91 89)
(96 97)
(98 96)
(99 100)
(101 99)
(100 98)
(102 103)
(104 102)
(105 106)
(29 105)
(106 104)
(103 101)
(97 95)
(107 30)
(108 109)
(110 108)
(109 107)
(111 112)
(113 111)
(114 115)
(31 114)
(115 113)
(112 110)
(116 32)
(117 116)
(118 119)
(120 118)
(119 117)
(121 122)
(123 121)
(124 125)
(126 127)
(127 124)
(125 123)
(122 120)
(128 126)
(129 128)
(130 129)
(131 132)
(133 131)
(132 130)
(134 135)
(136 134)
(137 138)
(33 139)
(139 137)
(138 136)
(135 133)
(140 34)
(141 142)
(142 140)
(143 141)
(144 143)
(145 144)
(146 145)
(35 147)
(147 146)
(148 0)
(0 1)
(1 149)
(150 151)
(152 153)
(154 150)
(153 155)
(151 148)
(149 152)
(156 157)
(158 159)
(160 156)
(159 161)
(162 163)
(164 165)
(2 3)
(3 162)
(165 2)
(163 160)
(161 164)
(157 154)
(155 158)
(36 166)
(167 168)
(166 167)
(169 170)
(171 172)
(172 173)
(170 171)
(168 169)
(174 175)
(176 177)
(177 178)
(175 176)
(179 180)
(181 182)
(182 37)
(180 181)
(178 179)
(173 174)
(38 183)
(184 185)
(185 186)
(183 184)
(187 188)
(188 189)
(190 191)
(191 192)
(189 190)
(186 187)
(193 194)
(194 195)
(196 197)
(197 198)
(195 196)
(199 200)
(200 201)
(202 203)
(203 39)
(201 202)
(198 199)
(192 193)
(40 204)
(205 206)
(206 207)
(204 205)
(208 209)
(209 210)
(211 212)
(212 213)
(210 211)
(207 208)
(214 215)
(215 216)
(217 218)
(218 219)
(216 217)
(220 221)
(221 222)
(223 224)
(224 41)
(222 223)
(219 220)
(213 214)
(42 225)
(226 227)
(227 228)
(225 226)
(229 230)
(230 231)
(232 233)
(233 43)
(231 232)
(228 229)
(44 234)
(234 235)
(236 237)
(237 238)
(235 236)
(239 240)
(240 241)
(242 243)
(244 245)
(243 244)
(241 242)
(238 239)
(245 246)
(246 247)
(247 248)
(249 250)
(250 251)
(248 249)
(252 253)
(253 254)
(255 256)
(257 45)
(256 257)
(254 255)
(251 252)
(46 258)
(259 260)
(258 259)
(260 261)
(261 262)
(262 263)
(263 264)
(265 47)
(264 265)
(4 5)
(266 4)
(5 267)
(268 269)
(270 271)
(272 268)
(271 273)
(269 266)
(267 270)
(274 275)
(276 277)
(278 274)
(277 279)
(280 281)
(282 283)
(6 280)
(7 6)
(283 7)
(281 278)
(279 282)
(275 272)
(273 276)
(284 25)
(285 286)
(286 284)
(287 288)
(289 290)
(290 287)
(288 285)
(291 292)
(293 294)
(294 291)
(295 296)
(37 297)
(297 295)
(296 293)
(292 289)
(298 27)
(299 300)
(301 299)
(300 298)
(302 303)
(304 305)
(306 304)
(305 302)
(303 301)
(307 308)
(309 310)
(311 309)
(310 307)
(312 313)
(314 315)
(39 314)
(315 312)
(313 311)
(308 306)
(316 29)
(317 318)
(318 316)
(319 320)
(321 322)
(323 321)
(322 319)
(320 317)
(324 325)
(326 327)
(328 326)
(327 324)
(329 330)
(331 332)
(41 331)
(332 329)
(330 328)
(325 323)
(333 31)
(334 335)
(335 333)
(336 337)
(338 339)
(43 338)
(339 336)
(337 334)
(28 340)
(341 342)
(340 341)
(343 344)
(345 346)
(346 347)
(344 345)
(342 343)
(348 349)
(350 351)
(351 352)
(349 350)
(353 354)
(355 356)
(356 40)
(354 355)
(352 353)
(347 348)
(30 357)
(358 359)
(357 358)
(360 361)
(362 363)
(363 42)
(361 362)
(359 360)
(24 364)
(365 366)
(364 365)
(367 368)
(369 370)
(368 369)
(366 367)
(371 372)
(373 374)
(372 373)
(375 376)
(377 36)
(376 377)
(374 375)
(370 371)
(26 378)
(379 380)
(380 381)
(378 379)
(382 383)
(384 385)
(385 386)
(383 384)
(381 382)
(387 388)
(389 390)
(390 391)
(388 389)
(392 393)
(394 395)
(395 38)
(393 394)
(391 392)
(386 387)
(2 396)
(397 3)
(398 399)
(400 401)
(396 398)
(401 397)
(402 400)
(399 403)
(404 405)
(406 407)
(7 408)
(409 6)
(405 409)
(408 406)
(407 402)
(403 404)
(410 1)
(0 411)
(412 413)
(414 415)
(413 410)
(411 414)
(416 417)
(418 419)
(420 421)
(422 423)
(4 420)
(423 5)
(421 416)
(419 422)
(417 412)
(415 418)
(424 45)
(425 424)
(426 425)
(44 427)
(428 429)
(427 428)
(430 426)
(431 430)
(432 431)
(33 432)
(433 434)
(434 435)
(435 32)
(429 433)
(46 436)
(436 437)
(437 438)
(439 440)
(438 439)
(440 441)
(441 34)
(442 47)
(443 442)
(444 443)
(445 444)
(446 445)
(447 446)
(35 447)
(24 8)
(8 448)
(449 450)
(448 449)
(451 452)
(453 454)
(454 455)
(452 453)
(450 451)
(456 457)
(458 459)
(459 460)
(457 458)
(461 462)
(463 464)
(9 25)
(464 9)
(462 463)
(460 461)
(455 456)
(26 10)
(10 465)
(466 467)
(467 468)
(465 466)
(469 470)
(470 471)
(472 473)
(473 474)
(471 472)
(468 469)
(475 476)
(476 477)
(478 479)
(479 480)
(477 478)
(481 482)
(482 483)
(484 485)
(11 27)
(485 11)
(483 484)
(480 481)
(474 475)
(28 12)
(12 486)
(487 488)
(488 489)
(486 487)
(490 491)
(491 492)
(493 494)
(494 495)
(492 493)
(489 490)
(496 497)
(497 498)
(499 500)
(500 501)
(498 499)
(502 503)
(503 504)
(505 506)
(13 29)
(506 13)
(504 505)
(501 502)
(495 496)
(30 14)
(14 507)
(508 509)
(509 510)
(507 508)
(511 512)
(512 513)
(514 515)
(15 31)
(515 15)
(513 514)
(510 511)
(32 516)
(517 33)
(34 517)
(516 35)
(16 36)
(518 16)
(519 520)
(520 518)
(521 522)
(523 524)
(525 523)
(524 521)
(522 519)
(526 527)
(528 529)
(530 528)
(529 526)
(531 532)
(533 534)
(17 533)
(37 17)
(534 531)
(532 530)
(527 525)
(18 38)
(535 18)
(536 537)
(538 536)
(537 535)
(539 540)
(541 539)
(542 543)
(544 542)
(543 541)
(540 538)
(545 546)
(547 545)
(548 549)
(550 548)
(549 547)
(551 552)
(553 551)
(554 555)
(19 554)
(39 19)
(555 553)
(552 550)
(546 544)
(20 40)
(556 20)
(557 558)
(559 557)
(558 556)
(560 561)
(562 560)
(563 564)
(565 563)
(564 562)
(561 559)
(566 567)
(568 566)
(569 570)
(571 569)
(570 568)
(572 573)
(574 572)
(575 576)
(21 575)
(41 21)
(576 574)
(573 571)
(567 565)
(22 42)
(577 22)
(578 579)
(580 578)
(579 577)
(581 582)
(583 581)
(584 585)
(23 584)
(43 23)
(585 583)
(582 580)
(586 44)
(45 587)
(587 46)
(47 586)
(9 588)
(589 590)
(588 589)
(591 592)
(593 594)
(592 593)
(590 591)
(595 596)
(597 598)
(596 597)
(599 600)
(601 17)
(600 601)
(598 599)
(594 595)
(11 602)
(603 604)
(604 605)
(602 603)
(606 607)
(608 609)
(609 610)
(607 608)
(605 606)
(611 612)
(613 614)
(614 615)
(612 613)
(616 617)
(618 619)
(619 19)
(617 618)
(615 616)
(610 611)
(13 620)
(621 622)
(620 621)
(623 624)
(625 626)
(626 627)
(624 625)
(622 623)
(628 629)
(630 631)
(631 632)
(629 630)
(633 634)
(635 636)
(636 21)
(634 635)
(632 633)
(627 628)
(15 637)
(638 639)
(637 638)
(640 641)
(642 643)
(643 23)
(641 642)
(639 640)
(644 12)
(645 646)
(646 644)
(647 648)
(649 650)
(651 649)
(650 647)
(648 645)
(652 653)
(654 655)
(656 654)
(655 652)
(657 658)
(659 660)
(20 659)
(660 657)
(658 656)
(653 651)
(661 14)
(662 663)
(663 661)
(664 665)
(666 667)
(22 666)
(667 664)
(665 662)
(668 8)
(669 670)
(670 668)
(671 672)
(673 674)
(674 671)
(672 669)
(675 676)
(677 678)
(678 675)
(679 680)
(16 681)
(681 679)
(680 677)
(676 673)
(682 10)
(683 684)
(685 683)
(684 682)
(686 687)
(688 689)
(690 688)
(689 686)
(687 685)
(691 692)
(693 694)
(695 693)
(694 691)
(696 697)
(698 699)
(18 698)
(699 696)
(697 695)
(692 690)
)

// concaveStart mixedStart nonFeatureStart
8 24 48
// internalStart flatStart openStart multipleStart
436 724 724 724
// normals

1408
(
(-1 0 0)
(0 -1 0)
(-1 0 0)
(0 -1 0)
(-1 0 0)
(0 -1 0)
(-1 0 0)
(0 -1 0)
(-1 0 0)
(0 -1 0)
(-1 0 0)
(-0 -1 0)
(-1 0 0)
(0 -1 0)
(-1 0 0)
(-0 -1 0)
(-1 0 0)
(0 -1 0)
(-1 0 0)
(0 -1 0)
(-1 0 0)
(0 -1 0)
(-1 0 0)
(0 -1 0)
(-1 0 0)
(0 -1 0)
(-1 0 0)
(-0 -1 0)
(-1 0 0)
(0 -1 0)
(-1 0 0)
(0 -1 0)
(-1 0 0)
(0 -1 0)
(-1 0 0)
(0 -1 0)
(-1 0 0)
(0 -1 0)
(-1 0 0)
(0 -1 0)
(-1 0 0)
(-0 -1 0)
(-1 0 0)
(-0 -1 0)
(-1 0 0)
(0 -1 0)
(-1 0 0)
(0 -1 0)
(-1 0 0)
(0 -1 0)
(-1 0 0)
(-0 -1 0)
(-1 0 0)
(0 -1 0)
(-1 0 0)
(0 -1 0)
(-1 0 0)
(-0 -1 0)
(-1 0 0)
(0 -1 0)
(-1 0 0)
(0 -1 0)
(-1 0 0)
(0 -1 0)
(-1 0 0)
(0 -1 0)
(-1 0 0)
(0 -1 0)
(-1 0 0)
(0 -1 0)
(-1 0 0)
(0 -1 0)
(-1 0 0)
(0 -1 0)
(-1 0 0)
(-0 -1 0)
(-1 0 0)
(0 -1 0)
(-1 0 0)
(0 -1 0)
(-1 0 0)
(0 -1 0)
(-1 0 0)
(0 -1 0)
(-1 0 0)
(-0 -1 0)
(-1 0 0)
(0 -1 0)
(-1 0 0)
(0 -1 0)
(-1 0 0)
(0 -1 0)
(-1 0 0)
(0 -1 0)
(-1 0 0)
(-0 -1 0)
(-1 0 0)
(0 -1 0)
(-1 0 0)
(0 -1 0)
(-1 0 0)
(0 -1 0)
(-1 0 0)
(0 -1 0)
(-1 0 0)
(-0 -1 0)
(-1 0 0)
(0 -1 0)
(-1 0 0)
(0 -1 0)
(-1 0 0)
(0 -1 0)
(-1 0 0)
(0 -1 0)
(-1 0 0)
(-0 -1 0)
(-1 0 0)
(0 -1 0)
(-1 0 0)
(0 -1 0)
(-1 0 0)
(0 -1 0)
(-1 0 0)
(0 -1 0)
(-1 0 0)
(0 -1 0)
(-1 0 0)
(0 -1 0)
(-1 0 0)
(0 -1 0)
(-1 0 0)
(-0 -1 0)
(-1 0 0)
(0 -1 0)
(-1 0 0)
(-0 -1 0)
(-1 0 0)
(-0 -1 0)
(-1 0 0)
(0 -1 0)
(-1 0 0)
(0 -1 0)
(-1 0 0)
(0 -1 0)
(-1 0 0)
(0 1 0)
(-1 0 0)
(0 1 0)
(-1 0 0)
(0 1 0)
(-1 0 0)
(0 1 0)
(-1 0 0)
(0 1 0)
(-1 0 0)
(0 1 0)
(-1 0 0)
(0 1 0)
(-1 0 0)
(0 1 0)
(-1 0 0)
(0 1 0)
(-1 0 0)
(-0 1 0)
(-1 0 0)
(0 1 0)
(-1 0 0)
(0 1 0)
(-1 0 0)
(0 1 0)
(-1 0 0)
(0 1 0)
(-1 0 0)
(0 1 0)
(-1 0 0)
(0 1 0)
(-1 0 0)
(0 1 0)
(-1 0 0)
(0 1 0)
(-1 0 0)
(0 1 0)
(-1 0 0)
(0 1 0)
(-1 0 0)
(-0 1 0)
(-1 0 0)
(0 1 0)
(-1 0 0)
(0 1 0)
(-1 0 0)
(0 1 0)
(-1 0 0)
(0 1 0)
(-1 0 0)
(0 -1 0)
(-1 0 0)
(0 -1 0)
(-1 -0 0)
(0 -1 0)
(-1 -0 0)
(-0 -1 0)
(-1 0 0)
(-0 -1 0)
(-1 0 0)
(0 -1 0)
(-1 0 0)
(0 -1 0)
(-1 0 0)
(0 -1 0)
(-1 -0 0)
(0 -1 0)
(1 0 0)
(0 1 0)
(1 0 0)
(0 0 1)
(0 -1 0)
(1 0 0)
(0 1 0)
(1 0 0)
(0 -1 0)
(1 0 0)
(0 1 -0)
(1 0 0)
(0 -1 0)
(1 0 0)
(0 1 -0)
(1 0 0)
(0 -1 -0)
(1 0 0)
(-0 1 0)
(1 0 0)
(0 -1 -0)
(1 0 0)
(0 1 -0)
(1 0 0)
(0 -1 -0)
(1 0 0)
(0 1 0)
(1 0 0)
(0 -1 0)
(1 0 0)
(0 0 -1)
(0 1 0)
(1 0 0)
(0 -1 0)
(1 0 0)
(0 1 0)
(1 0 0)
(0 -1 0)
(1 0 0)
(0 1 0)
(1 0 0)
(0 -1 0)
(1 0 0)
(-0 -1 0)
(1 0 0)
(0 -1 -0)
(1 0 0)
(0 -1 0)
(1 0 0)
(0 -1 -0)
(1 0 0)
(0 -1 0)
(1 0 0)
(0 -1 0)
(1 0 0)
(0 -1 0)
(1 0 0)
(0 -1 -0)
(1 0 0)
(-0 -1 -0)
(1 0 0)
(0 -1 0)
(1 0 0)
(0 -1 0)
(1 0 0)
(0 -1 0)
(1 0 0)
(0 -1 0)
(1 0 0)
(0 -1 0)
(1 0 0)
(0 -1 0)
(1 0 0)
(0 -1 0)
(1 0 0)
(0 -1 0)
(1 0 0)
(0 -1 0)
(1 0 0)
(-0 -1 0)
(1 0 0)
(0 -1 0)
(1 0 0)
(0 -1 0)
(1 0 0)
(0 -1 -0)
(1 0 0)
(0 -1 0)
(1 0 0)
(0 -1 -0)
(1 0 0)
(0 -1 -0)
(1 0 0)
(0 -1 0)
(1 0 0)
(0 -1 0)
(1 0 0)
(0 -1 -0)
(1 0 0)
(0 -1 0)
(1 0 0)
(0 -1 0)
(1 0 0)
(0 -1 0)
(1 0 0)
(0 -1 0)
(1 0 0)
(0 -1 -0)
(1 0 0)
(0 -1 0)
(1 0 0)
(0 -1 0)
(1 0 0)
(0 -1 -0)
(1 0 0)
(0 -1 0)
(1 0 0)
(0 -1 0)
(1 0 0)
(0 -1 0)
(1 0 0)
(0 -1 0)
(1 0 0)
(0 -1 0)
(1 0 0)
(0 -1 -0)
(1 0 0)
(0 -1 0)
(1 0 0)
(0 -1 0)
(1 0 0)
(0 -1 0)
(1 0 0)
(0 -1 0)
(1 0 0)
(0 -1 -0)
(1 0 0)
(0 -1 0)
(1 0 0)
(0 -1 0)
(1 0 0)
(0 -1 0)
(1 0 0)
(0 -1 0)
(1 0 0)
(0 -1 0)
(1 0 0)
(0 -1 0)
(1 0 0)
(0 -1 -0)
(1 0 0)
(0 -1 0)
(1 0 0)
(0 -1 0)
(1 0 0)
(0 -1 0)
(1 0 0)
(0 -1 -0)
(1 0 0)
(0 -1 0)
(1 0 0)
(0 -1 0)
(1 0 0)
(0 -1 0)
(1 0 0)
(0 -1 -0)
(1 0 0)
(0 -1 -0)
(1 0 0)
(0 -1 -0)
(1 0 0)
(0 -1 0)
(1 0 0)
(0 -1 0)
(1 0 0)
(0 -1 -0)
(1 0 0)
(0 -1 0)
(1 0 0)
(0 -1 0)
(1 0 0)
(0 -1 0)
(1 0 0)
(0 -1 0)
(1 0 0)
(0 -1 0)
(1 -0 0)
(-0 1 0)
(1 0 0)
(0 1 0)
(1 -0 0)
(-0 1 0)
(1 0 0)
(0 1 0)
(1 0 0)
(0 1 0)
(1 0 0)
(0 1 -0)
(1 -0 0)
(0 1 0)
(1 -0 0)
(-0 1 0)
(1 0 0)
(0 1 0)
(1 0 0)
(0 1 0)
(1 -0 0)
(0 1 -0)
(1 0 0)
(0 1 0)
(1 0 0)
(0 1 0)
(1 0 0)
(0 1 -0)
(1 0 0)
(0 1 0)
(1 0 0)
(0 1 0)
(1 -0 0)
(0 1 0)
(1 0 0)
(-0 1 0)
(1 0 0)
(0 1 0)
(1 0 0)
(0 1 0)
(1 0 0)
(0 1 -0)
(1 0 0)
(0 1 -0)
(1 0 0)
(0 1 0)
(1 0 0)
(0 1 -0)
(1 0 0)
(0 1 0)
(1 0 0)
(0 -1 0)
(1 0 0)
(0 -1 0)
(1 0 0)
(0 -1 0)
(1 0 0)
(0 -1 0)
(1 0 0)
(0 -1 0)
(1 0 0)
(0 -1 0)
(1 0 0)
(0 -1 0)
(1 0 0)
(0 -1 0)
(1 0 0)
(0 -1 0)
(-1 0 0)
(0 0 1)
(0 -1 0)
(-1 0 0)
(0 1 0)
(-1 0 0)
(0 -1 0)
(-1 0 0)
(0 1 0)
(-1 0 0)
(0 -1 0)
(-1 0 0)
(0 1 0)
(-1 0 0)
(0 -1 0)
(-1 0 0)
(0 1 0)
(-1 0 0)
(0 -1 0)
(-1 0 0)
(0 1 0)
(-1 0 0)
(0 -1 0)
(-1 0 0)
(0 1 0)
(-1 0 0)
(0 -1 0)
(-1 0 0)
(0 1 0)
(-1 0 0)
(0 -1 0)
(-1 0 0)
(0 0 -1)
(0 1 0)
(-1 0 0)
(-0 -1 0)
(-1 0 0)
(0 1 0)
(-1 0 0)
(0 -1 0)
(-1 0 0)
(0 1 0)
(0 0 1)
(-0 -1 0)
(0 0 1)
(0 -1 -0)
(0 0 1)
(0 -1 0)
(0 0 1)
(0 -1 0)
(0 0 1)
(0 -1 0)
(0 0 1)
(-0 -1 0)
(0 0 1)
(0 -1 0)
(0 0 1)
(0 -1 0)
(0 0 1)
(0 -1 0)
(0 0 1)
(-0 -1 0)
(0 0 1)
(0 -1 0)
(0 0 1)
(-0 -1 -0)
(0 0 1)
(0 -1 0)
(0 0 1)
(0 -1 0)
(0 0 1)
(0 -1 0)
(0 0 1)
(-0 -1 0)
(0 0 1)
(-0 -1 0)
(0 0 1)
(0 -1 0)
(0 0 1)
(0 -1 0)
(0 0 1)
(-0 -1 -0)
(0 0 1)
(0 -1 0)
(0 0 1)
(0 -1 0)
(0 0 1)
(0 -1 0)
(0 0 1)
(0 -1 0)
(0 0 1)
(0 -1 0)
(0 0 1)
(0 -1 0)
(0 0 1)
(0 -1 0)
(0 0 1)
(-0 -1 0)
(0 0 1)
(0 -1 0)
(0 0 1)
(0 -1 0)
(0 0 1)
(0 -1 0)
(0 0 1)
(0 -1 0)
(0 0 1)
(0 -1 0)
(0 0 1)
(-0 -1 0)
(0 0 1)
(0 -1 0)
(0 0 1)
(0 -1 0)